                                  MODFLOW-2005     
      U.S. GEOLOGICAL SURVEY MODULAR FINITE-DIFFERENCE GROUND-WATER FLOW MODEL
                            VERSION 1.10.00 3/6/2013

 LIST FILE: plot_demo.list
                         UNIT    2

 OPENING plot_demo.dis
 FILE TYPE:DIS   UNIT   11   STATUS:OLD    
 FORMAT:FORMATTED              ACCESS:SEQUENTIAL          

 OPENING plot_demo.bas
 FILE TYPE:BAS6   UNIT   13   STATUS:OLD    
 FORMAT:FORMATTED              ACCESS:SEQUENTIAL          

 OPENING plot_demo.lpf
 FILE TYPE:LPF   UNIT   15   STATUS:OLD    
 FORMAT:FORMATTED              ACCESS:SEQUENTIAL          

 OPENING plot_demo.wel
 FILE TYPE:WEL   UNIT   20   STATUS:OLD    
 FORMAT:FORMATTED              ACCESS:SEQUENTIAL          

 OPENING plot_demo.chd
 FILE TYPE:CHD   UNIT   24   STATUS:OLD    
 FORMAT:FORMATTED              ACCESS:SEQUENTIAL          

 OPENING plot_demo.oc
 FILE TYPE:OC   UNIT   14   STATUS:OLD    
 FORMAT:FORMATTED              ACCESS:SEQUENTIAL          

 OPENING plot_demo.pcg
 FILE TYPE:PCG   UNIT   27   STATUS:OLD    
 FORMAT:FORMATTED              ACCESS:SEQUENTIAL          

 OPENING plot_demo.cbc
 FILE TYPE:DATA(BINARY)   UNIT   53   STATUS:REPLACE
 FORMAT:BINARY                 ACCESS:SEQUENTIAL          

 OPENING plot_demo.hds
 FILE TYPE:DATA(BINARY)   UNIT   51   STATUS:REPLACE
 FORMAT:BINARY                 ACCESS:SEQUENTIAL          

 BAS -- BASIC PACKAGE, VERSION 7, 5/2/2005 INPUT READ FROM UNIT   13
 
 MODFLOW was compiled using mixed precision
 Precision of REAL variables:           6
 Precision of DOUBLE PRECISION variables:          15

 DISCRETIZATION INPUT DATA READ FROM UNIT   11
 # DIS package for MODFLOW-2005 generated by Flopy 3.9.3
    3 LAYERS        10 ROWS        10 COLUMNS
    3 STRESS PERIOD(S) IN SIMULATION
 MODEL TIME UNIT IS DAYS
 MODEL LENGTH UNIT IS METERS
  Confining bed flag for each layer:
   0   0   0

                     DELR =  100.0000    

                     DELC =  100.0000    

 TOP ELEVATION OF LAYER 1 =  100.0000    

   MODEL LAYER BOTTOM EL. =   75.0000     FOR LAYER   1

   MODEL LAYER BOTTOM EL. =   50.0000     FOR LAYER   2

   MODEL LAYER BOTTOM EL. =   25.0000     FOR LAYER   3


 STRESS PERIOD     LENGTH       TIME STEPS     MULTIPLIER FOR DELT    SS FLAG
 ----------------------------------------------------------------------------
        1        1.0000000          1                    1.000         SS
        2        100.00000         10                    1.000         TR
        3        100.00000         10                    1.000         TR

 COMBINED STEADY-STATE AND TRANSIENT SIMULATION



 
 # BAS6 package for MODFLOW-2005 generated by Flopy 3.9.3                        
 THE FREE FORMAT OPTION HAS BEEN SELECTED



                     BOUNDARY ARRAY FOR LAYER   1
 READING ON UNIT   13 WITH FORMAT: (10I10)             



                     BOUNDARY ARRAY FOR LAYER   2
 READING ON UNIT   13 WITH FORMAT: (10I10)             



                     BOUNDARY ARRAY FOR LAYER   3
 READING ON UNIT   13 WITH FORMAT: (10I10)             

 AQUIFER HEAD WILL BE SET TO  -999.99     AT ALL NO-FLOW NODES (IBOUND=0).



                       INITIAL HEAD FOR LAYER   1
 READING ON UNIT   13 WITH FORMAT: (10E15.6)           



                       INITIAL HEAD FOR LAYER   2
 READING ON UNIT   13 WITH FORMAT: (10E15.6)           



                       INITIAL HEAD FOR LAYER   3
 READING ON UNIT   13 WITH FORMAT: (10E15.6)           
 # OC package for MODFLOW-2005 generated by Flopy 3.9.3

 OUTPUT CONTROL IS SPECIFIED ONLY AT TIME STEPS FOR WHICH OUTPUT IS DESIRED
 COMPACT CELL-BY-CELL BUDGET FILES WILL BE WRITTEN
 AUXILIARY DATA WILL BE SAVED IN CELL-BY-CELL BUDGET FILES
 HEAD PRINT FORMAT CODE IS   0    DRAWDOWN PRINT FORMAT CODE IS   0
 HEADS WILL BE SAVED ON UNIT   51    DRAWDOWNS WILL BE SAVED ON UNIT    0

 LPF -- LAYER-PROPERTY FLOW PACKAGE, VERSION 7, 5/2/2005
         INPUT READ FROM UNIT   15
 # LPF package for MODFLOW-2005 generated by Flopy 3.9.3
 CELL-BY-CELL FLOWS WILL BE SAVED ON UNIT   53
 HEAD AT CELLS THAT CONVERT TO DRY= -1.00000E+30
 No named parameters

   LAYER FLAGS:
 LAYER       LAYTYP        LAYAVG         CHANI        LAYVKA        LAYWET
 ---------------------------------------------------------------------------
    1             0             0     1.000E+00             0             0
    2             0             0     1.000E+00             0             0
    3             0             0     1.000E+00             0             0

   INTERPRETATION OF LAYER FLAGS:
                        INTERBLOCK     HORIZONTAL    DATA IN
         LAYER TYPE   TRANSMISSIVITY   ANISOTROPY   ARRAY VKA   WETTABILITY
 LAYER      (LAYTYP)      (LAYAVG)       (CHANI)      (LAYVKA)      (LAYWET)
 ---------------------------------------------------------------------------
    1      CONFINED      HARMONIC     1.000E+00    VERTICAL K  NON-WETTABLE
    2      CONFINED      HARMONIC     1.000E+00    VERTICAL K  NON-WETTABLE
    3      CONFINED      HARMONIC     1.000E+00    VERTICAL K  NON-WETTABLE

 WETTING CAPABILITY IS NOT ACTIVE IN ANY LAYER



              HYD. COND. ALONG ROWS FOR LAYER   1
 READING ON UNIT   15 WITH FORMAT: (10E15.6)           

      VERTICAL HYD. COND. =  1.000000E-01 FOR LAYER   1

         SPECIFIC STORAGE =  1.000000E-05 FOR LAYER   1



              HYD. COND. ALONG ROWS FOR LAYER   2
 READING ON UNIT   15 WITH FORMAT: (10E15.6)           

      VERTICAL HYD. COND. =  1.000000E-01 FOR LAYER   2

         SPECIFIC STORAGE =  1.000000E-05 FOR LAYER   2



              HYD. COND. ALONG ROWS FOR LAYER   3
 READING ON UNIT   15 WITH FORMAT: (10E15.6)           

      VERTICAL HYD. COND. =  1.000000E-01 FOR LAYER   3

         SPECIFIC STORAGE =  1.000000E-05 FOR LAYER   3

 WEL -- WELL PACKAGE, VERSION 7, 5/2/2005 INPUT READ FROM UNIT   20
 # WEL package for MODFLOW-2005 generated by Flopy 3.9.3
 No named parameters
 MAXIMUM OF      6 ACTIVE WELLS AT ONE TIME
 CELL-BY-CELL FLOWS WILL BE SAVED ON UNIT   53


     0 Well parameters

 CHD -- TIME-VARIANT SPECIFIED-HEAD OPTION, VERSION 7, 5/2/2005
 INPUT READ FROM UNIT   24
 # CHD package for MODFLOW-2005 generated by Flopy 3.9.3
 No named parameters
 MAXIMUM OF     60 TIME-VARIANT SPECIFIED-HEAD CELLS AT ONE TIME


     0 TIME-VARIANT SPECIFIED-HEAD PARAMETERS

 PCG -- CONJUGATE-GRADIENT SOLUTION PACKAGE, VERSION 7, 5/2/2005
 # PCG package for MODFLOW-2005 generated by Flopy 3.9.3
 MAXIMUM OF     50 CALLS OF SOLUTION ROUTINE
 MAXIMUM OF     30 INTERNAL ITERATIONS PER CALL TO SOLUTION ROUTINE
 MATRIX PRECONDITIONING TYPE :    1



                                    SOLUTION BY THE CONJUGATE-GRADIENT METHOD
                                   -------------------------------------------
                    MAXIMUM NUMBER OF CALLS TO PCG ROUTINE =       50
                        MAXIMUM ITERATIONS PER CALL TO PCG =       30
                               MATRIX PRECONDITIONING TYPE =        1
        RELAXATION FACTOR (ONLY USED WITH PRECOND. TYPE 1) =    0.10000E+01
 PARAMETER OF POLYNOMIAL PRECOND. = 2 (2) OR IS CALCULATED :        0
                         HEAD CHANGE CRITERION FOR CLOSURE =    0.10000E-04
                     RESIDUAL CHANGE CRITERION FOR CLOSURE =    0.10000E-04
            PCG HEAD AND RESIDUAL CHANGE PRINTOUT INTERVAL =      999
     PRINTING FROM SOLVER IS LIMITED(1) OR SUPPRESSED (>1) =        3
                            STEADY-STATE DAMPING PARAMETER =    0.10000E+01
                               TRANSIENT DAMPING PARAMETER =    0.10000E+01
1
                            STRESS PERIOD NO.    1, LENGTH =  1.0000000    
                            -----------------------------------------------

                              NUMBER OF TIME STEPS =     1

                               MULTIPLIER FOR DELT =     1.000

                            INITIAL TIME STEP SIZE =  1.0000000    

 WELL NO.  LAYER   ROW   COL   STRESS RATE         
 --------------------------------------------------
      1      1      3      3      -500.0    
      2      1      8      8      -300.0    
      3      2      3      3      -500.0    
      4      2      8      8      -300.0    
      5      3      3      3      -500.0    
      6      3      8      8      -300.0    

      6 WELLS

 CHD NO.   LAYER   ROW   COL    START HEAD        END HEAD         
 ------------------------------------------------------------------
      1      1      1      1      100.00          100.00    
      2      2      1      1      100.00          100.00    
      3      3      1      1      100.00          100.00    
      4      1      2      1      100.00          100.00    
      5      2      2      1      100.00          100.00    
      6      3      2      1      100.00          100.00    
      7      1      3      1      100.00          100.00    
      8      2      3      1      100.00          100.00    
      9      3      3      1      100.00          100.00    
     10      1      4      1      100.00          100.00    
     11      2      4      1      100.00          100.00    
     12      3      4      1      100.00          100.00    
     13      1      5      1      100.00          100.00    
     14      2      5      1      100.00          100.00    
     15      3      5      1      100.00          100.00    
     16      1      6      1      100.00          100.00    
     17      2      6      1      100.00          100.00    
     18      3      6      1      100.00          100.00    
     19      1      7      1      100.00          100.00    
     20      2      7      1      100.00          100.00    
     21      3      7      1      100.00          100.00    
     22      1      8      1      100.00          100.00    
     23      2      8      1      100.00          100.00    
     24      3      8      1      100.00          100.00    
     25      1      9      1      100.00          100.00    
     26      2      9      1      100.00          100.00    
     27      3      9      1      100.00          100.00    
     28      1     10      1      100.00          100.00    
     29      2     10      1      100.00          100.00    
     30      3     10      1      100.00          100.00    
     31      1      1     10       90.00           90.00    
     32      2      1     10       90.00           90.00    
     33      3      1     10       90.00           90.00    
     34      1      2     10       90.00           90.00    
     35      2      2     10       90.00           90.00    
     36      3      2     10       90.00           90.00    
     37      1      3     10       90.00           90.00    
     38      2      3     10       90.00           90.00    
     39      3      3     10       90.00           90.00    
     40      1      4     10       90.00           90.00    
     41      2      4     10       90.00           90.00    
     42      3      4     10       90.00           90.00    
     43      1      5     10       90.00           90.00    
     44      2      5     10       90.00           90.00    
     45      3      5     10       90.00           90.00    
     46      1      6     10       90.00           90.00    
     47      2      6     10       90.00           90.00    
     48      3      6     10       90.00           90.00    
     49      1      7     10       90.00           90.00    
     50      2      7     10       90.00           90.00    
     51      3      7     10       90.00           90.00    
     52      1      8     10       90.00           90.00    
     53      2      8     10       90.00           90.00    
     54      3      8     10       90.00           90.00    
     55      1      9     10       90.00           90.00    
     56      2      9     10       90.00           90.00    
     57      3      9     10       90.00           90.00    
     58      1     10     10       90.00           90.00    
     59      2     10     10       90.00           90.00    
     60      3     10     10       90.00           90.00    


     60 TIME-VARIANT SPECIFIED-HEAD CELLS
 
 SOLVING FOR HEAD 

 OUTPUT CONTROL FOR STRESS PERIOD    1   TIME STEP    1
    PRINT HEAD FOR ALL LAYERS
    PRINT BUDGET
    SAVE HEAD FOR ALL LAYERS
    SAVE BUDGET
 UBDSV2 SAVING "   CONSTANT HEAD" ON UNIT  53 AT TIME STEP  1, STRESS PERIOD   1
 UBDSV1 SAVING "FLOW RIGHT FACE " ON UNIT  53 AT TIME STEP  1, STRESS PERIOD   1
 UBDSV1 SAVING "FLOW FRONT FACE " ON UNIT  53 AT TIME STEP  1, STRESS PERIOD   1
 UBDSV1 SAVING "FLOW LOWER FACE " ON UNIT  53 AT TIME STEP  1, STRESS PERIOD   1
 UBDSV4 SAVING "           WELLS" ON UNIT  53 AT TIME STEP  1, STRESS PERIOD   1
1
              HEAD IN LAYER   1 AT END OF TIME STEP   1 IN STRESS PERIOD    1
  ---------------------------------------------------------------------------

            1           2           3           4           5           6           7           8           9          10
 ........................................................................................................................
   1   100.00       98.81       97.65       96.52       95.42       94.32       93.24       92.16       91.08       90.00    
   2   100.00       98.80       97.61       96.50       95.41       94.32       93.23       92.15       91.08       90.00    
   3   100.00       98.76       97.49       96.46       95.39       94.31       93.23       92.15       91.07       90.00    
   4   100.00       98.78       97.58       96.47       95.38       94.28       93.19       92.12       91.05       90.00    
   5   100.00       98.81       97.63       96.48       95.35       94.23       93.13       92.05       91.01       90.00    
   6   100.00       98.82       97.64       96.48       95.32       94.17       93.03       91.93       90.95       90.00    
   7   100.00       98.82       97.64       96.46       95.29       94.10       92.90       91.71       90.84       90.00    
   8   100.00       98.81       97.61       96.40       95.16       93.81       92.07       88.73       90.11       90.00    
   9   100.00       98.79       97.56       96.32       95.03       93.66       92.15       90.57       90.29       90.00    
  10   100.00       98.78       97.54       96.28       94.99       93.65       92.30       91.11       90.47       90.00    
1
              HEAD IN LAYER   2 AT END OF TIME STEP   1 IN STRESS PERIOD    1
  ---------------------------------------------------------------------------

            1           2           3           4           5           6           7           8           9          10
 ........................................................................................................................
   1   100.00       98.81       97.65       96.52       95.42       94.32       93.24       92.16       91.08       90.00    
   2   100.00       98.80       97.61       96.50       95.41       94.32       93.23       92.15       91.08       90.00    
   3   100.00       98.76       97.49       96.46       95.39       94.31       93.23       92.15       91.07       90.00    
   4   100.00       98.78       97.58       96.47       95.38       94.28       93.19       92.12       91.05       90.00    
   5   100.00       98.81       97.63       96.48       95.35       94.23       93.13       92.05       91.01       90.00    
   6   100.00       98.82       97.64       96.48       95.32       94.17       93.03       91.93       90.95       90.00    
   7   100.00       98.82       97.64       96.46       95.29       94.10       92.90       91.71       90.84       90.00    
   8   100.00       98.81       97.61       96.40       95.16       93.81       92.07       88.73       90.11       90.00    
   9   100.00       98.79       97.56       96.32       95.03       93.66       92.15       90.57       90.29       90.00    
  10   100.00       98.78       97.54       96.28       94.99       93.65       92.30       91.11       90.47       90.00    
1
              HEAD IN LAYER   3 AT END OF TIME STEP   1 IN STRESS PERIOD    1
  ---------------------------------------------------------------------------

            1           2           3           4           5           6           7           8           9          10
 ........................................................................................................................
   1   100.00       98.81       97.65       96.52       95.42       94.32       93.24       92.16       91.08       90.00    
   2   100.00       98.80       97.61       96.50       95.41       94.32       93.23       92.15       91.08       90.00    
   3   100.00       98.76       97.49       96.46       95.39       94.31       93.23       92.15       91.07       90.00    
   4   100.00       98.78       97.58       96.47       95.38       94.28       93.19       92.12       91.05       90.00    
   5   100.00       98.81       97.63       96.48       95.35       94.23       93.13       92.05       91.01       90.00    
   6   100.00       98.82       97.64       96.48       95.32       94.17       93.03       91.93       90.95       90.00    
   7   100.00       98.82       97.64       96.46       95.29       94.10       92.90       91.71       90.84       90.00    
   8   100.00       98.81       97.61       96.40       95.16       93.81       92.07       88.73       90.11       90.00    
   9   100.00       98.79       97.56       96.32       95.03       93.66       92.15       90.57       90.29       90.00    
  10   100.00       98.78       97.54       96.28       94.99       93.65       92.30       91.11       90.47       90.00    

 HEAD WILL BE SAVED ON UNIT   51 AT END OF TIME STEP    1, STRESS PERIOD    1
1
  VOLUMETRIC BUDGET FOR ENTIRE MODEL AT END OF TIME STEP    1, STRESS PERIOD   1
  ------------------------------------------------------------------------------

     CUMULATIVE VOLUMES      L**3       RATES FOR THIS TIME STEP      L**3/T
     ------------------                 ------------------------

           IN:                                      IN:
           ---                                      ---
             STORAGE =           0.0000               STORAGE =           0.0000
       CONSTANT HEAD =       17450.0000         CONSTANT HEAD =       17450.0000
               WELLS =           0.0000                 WELLS =           0.0000

            TOTAL IN =       17450.0000              TOTAL IN =       17450.0000

          OUT:                                     OUT:
          ----                                     ----
             STORAGE =           0.0000               STORAGE =           0.0000
       CONSTANT HEAD =       15050.0000         CONSTANT HEAD =       15050.0000
               WELLS =        2400.0000                 WELLS =        2400.0000

           TOTAL OUT =       17450.0000             TOTAL OUT =       17450.0000

            IN - OUT =           0.0000              IN - OUT =           0.0000

 PERCENT DISCREPANCY =           0.00     PERCENT DISCREPANCY =           0.00






         TIME SUMMARY AT END OF TIME STEP    1 IN STRESS PERIOD    1
                    SECONDS     MINUTES      HOURS       DAYS        YEARS
                    -----------------------------------------------------------
   TIME STEP LENGTH  86400.      1440.0      24.000     1.00000     2.73785E-03
 STRESS PERIOD TIME  86400.      1440.0      24.000     1.00000     2.73785E-03
         TOTAL TIME  86400.      1440.0      24.000     1.00000     2.73785E-03
1
1
                            STRESS PERIOD NO.    2, LENGTH =  100.00000    
                            -----------------------------------------------

                              NUMBER OF TIME STEPS =    10

                               MULTIPLIER FOR DELT =     1.000

                            INITIAL TIME STEP SIZE =  10.000000    

 WELL NO.  LAYER   ROW   COL   STRESS RATE         
 --------------------------------------------------
      1      1      3      3      -500.0    
      2      1      8      8      -300.0    
      3      2      3      3      -500.0    
      4      2      8      8      -300.0    
      5      3      3      3      -500.0    
      6      3      8      8      -300.0    

      6 WELLS

 CHD NO.   LAYER   ROW   COL    START HEAD        END HEAD         
 ------------------------------------------------------------------
      1      1      1      1      100.00          100.00    
      2      2      1      1      100.00          100.00    
      3      3      1      1      100.00          100.00    
      4      1      2      1      100.00          100.00    
      5      2      2      1      100.00          100.00    
      6      3      2      1      100.00          100.00    
      7      1      3      1      100.00          100.00    
      8      2      3      1      100.00          100.00    
      9      3      3      1      100.00          100.00    
     10      1      4      1      100.00          100.00    
     11      2      4      1      100.00          100.00    
     12      3      4      1      100.00          100.00    
     13      1      5      1      100.00          100.00    
     14      2      5      1      100.00          100.00    
     15      3      5      1      100.00          100.00    
     16      1      6      1      100.00          100.00    
     17      2      6      1      100.00          100.00    
     18      3      6      1      100.00          100.00    
     19      1      7      1      100.00          100.00    
     20      2      7      1      100.00          100.00    
     21      3      7      1      100.00          100.00    
     22      1      8      1      100.00          100.00    
     23      2      8      1      100.00          100.00    
     24      3      8      1      100.00          100.00    
     25      1      9      1      100.00          100.00    
     26      2      9      1      100.00          100.00    
     27      3      9      1      100.00          100.00    
     28      1     10      1      100.00          100.00    
     29      2     10      1      100.00          100.00    
     30      3     10      1      100.00          100.00    
     31      1      1     10       90.00           90.00    
     32      2      1     10       90.00           90.00    
     33      3      1     10       90.00           90.00    
     34      1      2     10       90.00           90.00    
     35      2      2     10       90.00           90.00    
     36      3      2     10       90.00           90.00    
     37      1      3     10       90.00           90.00    
     38      2      3     10       90.00           90.00    
     39      3      3     10       90.00           90.00    
     40      1      4     10       90.00           90.00    
     41      2      4     10       90.00           90.00    
     42      3      4     10       90.00           90.00    
     43      1      5     10       90.00           90.00    
     44      2      5     10       90.00           90.00    
     45      3      5     10       90.00           90.00    
     46      1      6     10       90.00           90.00    
     47      2      6     10       90.00           90.00    
     48      3      6     10       90.00           90.00    
     49      1      7     10       90.00           90.00    
     50      2      7     10       90.00           90.00    
     51      3      7     10       90.00           90.00    
     52      1      8     10       90.00           90.00    
     53      2      8     10       90.00           90.00    
     54      3      8     10       90.00           90.00    
     55      1      9     10       90.00           90.00    
     56      2      9     10       90.00           90.00    
     57      3      9     10       90.00           90.00    
     58      1     10     10       90.00           90.00    
     59      2     10     10       90.00           90.00    
     60      3     10     10       90.00           90.00    


     60 TIME-VARIANT SPECIFIED-HEAD CELLS
 
 SOLVING FOR HEAD 

 NO OUTPUT CONTROL FOR STRESS PERIOD    2   TIME STEP    1
 
 SOLVING FOR HEAD 

 NO OUTPUT CONTROL FOR STRESS PERIOD    2   TIME STEP    2
 
 SOLVING FOR HEAD 

 NO OUTPUT CONTROL FOR STRESS PERIOD    2   TIME STEP    3
 
 SOLVING FOR HEAD 

 NO OUTPUT CONTROL FOR STRESS PERIOD    2   TIME STEP    4
 
 SOLVING FOR HEAD 

 NO OUTPUT CONTROL FOR STRESS PERIOD    2   TIME STEP    5
 
 SOLVING FOR HEAD 

 NO OUTPUT CONTROL FOR STRESS PERIOD    2   TIME STEP    6
 
 SOLVING FOR HEAD 

 NO OUTPUT CONTROL FOR STRESS PERIOD    2   TIME STEP    7
 
 SOLVING FOR HEAD 

 NO OUTPUT CONTROL FOR STRESS PERIOD    2   TIME STEP    8
 
 SOLVING FOR HEAD 

 NO OUTPUT CONTROL FOR STRESS PERIOD    2   TIME STEP    9
 
 SOLVING FOR HEAD 

 OUTPUT CONTROL FOR STRESS PERIOD    2   TIME STEP   10
    PRINT HEAD FOR ALL LAYERS
    PRINT BUDGET
    SAVE HEAD FOR ALL LAYERS
    SAVE BUDGET
 UBDSV1 SAVING "         STORAGE" ON UNIT  53 AT TIME STEP 10, STRESS PERIOD   2
 UBDSV2 SAVING "   CONSTANT HEAD" ON UNIT  53 AT TIME STEP 10, STRESS PERIOD   2
 UBDSV1 SAVING "FLOW RIGHT FACE " ON UNIT  53 AT TIME STEP 10, STRESS PERIOD   2
 UBDSV1 SAVING "FLOW FRONT FACE " ON UNIT  53 AT TIME STEP 10, STRESS PERIOD   2
 UBDSV1 SAVING "FLOW LOWER FACE " ON UNIT  53 AT TIME STEP 10, STRESS PERIOD   2
 UBDSV4 SAVING "           WELLS" ON UNIT  53 AT TIME STEP 10, STRESS PERIOD   2
1
              HEAD IN LAYER   1 AT END OF TIME STEP  10 IN STRESS PERIOD    2
  ---------------------------------------------------------------------------

            1           2           3           4           5           6           7           8           9          10
 ........................................................................................................................
   1   100.00       98.81       97.65       96.52       95.42       94.32       93.24       92.16       91.08       90.00    
   2   100.00       98.80       97.61       96.50       95.41       94.32       93.23       92.15       91.08       90.00    
   3   100.00       98.76       97.49       96.46       95.39       94.31       93.23       92.15       91.07       90.00    
   4   100.00       98.78       97.58       96.47       95.38       94.28       93.19       92.12       91.05       90.00    
   5   100.00       98.81       97.63       96.48       95.35       94.23       93.13       92.05       91.01       90.00    
   6   100.00       98.82       97.64       96.48       95.32       94.17       93.03       91.93       90.95       90.00    
   7   100.00       98.82       97.64       96.46       95.29       94.10       92.90       91.71       90.84       90.00    
   8   100.00       98.81       97.61       96.40       95.16       93.81       92.07       88.73       90.11       90.00    
   9   100.00       98.79       97.56       96.32       95.03       93.66       92.15       90.57       90.29       90.00    
  10   100.00       98.78       97.54       96.28       94.99       93.65       92.30       91.11       90.47       90.00    
1
              HEAD IN LAYER   2 AT END OF TIME STEP  10 IN STRESS PERIOD    2
  ---------------------------------------------------------------------------

            1           2           3           4           5           6           7           8           9          10
 ........................................................................................................................
   1   100.00       98.81       97.65       96.52       95.42       94.32       93.24       92.16       91.08       90.00    
   2   100.00       98.80       97.61       96.50       95.41       94.32       93.23       92.15       91.08       90.00    
   3   100.00       98.76       97.49       96.46       95.39       94.31       93.23       92.15       91.07       90.00    
   4   100.00       98.78       97.58       96.47       95.38       94.28       93.19       92.12       91.05       90.00    
   5   100.00       98.81       97.63       96.48       95.35       94.23       93.13       92.05       91.01       90.00    
   6   100.00       98.82       97.64       96.48       95.32       94.17       93.03       91.93       90.95       90.00    
   7   100.00       98.82       97.64       96.46       95.29       94.10       92.90       91.71       90.84       90.00    
   8   100.00       98.81       97.61       96.40       95.16       93.81       92.07       88.73       90.11       90.00    
   9   100.00       98.79       97.56       96.32       95.03       93.66       92.15       90.57       90.29       90.00    
  10   100.00       98.78       97.54       96.28       94.99       93.65       92.30       91.11       90.47       90.00    
1
              HEAD IN LAYER   3 AT END OF TIME STEP  10 IN STRESS PERIOD    2
  ---------------------------------------------------------------------------

            1           2           3           4           5           6           7           8           9          10
 ........................................................................................................................
   1   100.00       98.81       97.65       96.52       95.42       94.32       93.24       92.16       91.08       90.00    
   2   100.00       98.80       97.61       96.50       95.41       94.32       93.23       92.15       91.08       90.00    
   3   100.00       98.76       97.49       96.46       95.39       94.31       93.23       92.15       91.07       90.00    
   4   100.00       98.78       97.58       96.47       95.38       94.28       93.19       92.12       91.05       90.00    
   5   100.00       98.81       97.63       96.48       95.35       94.23       93.13       92.05       91.01       90.00    
   6   100.00       98.82       97.64       96.48       95.32       94.17       93.03       91.93       90.95       90.00    
   7   100.00       98.82       97.64       96.46       95.29       94.10       92.90       91.71       90.84       90.00    
   8   100.00       98.81       97.61       96.40       95.16       93.81       92.07       88.73       90.11       90.00    
   9   100.00       98.79       97.56       96.32       95.03       93.66       92.15       90.57       90.29       90.00    
  10   100.00       98.78       97.54       96.28       94.99       93.65       92.30       91.11       90.47       90.00    

 HEAD WILL BE SAVED ON UNIT   51 AT END OF TIME STEP   10, STRESS PERIOD    2
1
  VOLUMETRIC BUDGET FOR ENTIRE MODEL AT END OF TIME STEP   10, STRESS PERIOD   2
  ------------------------------------------------------------------------------

     CUMULATIVE VOLUMES      L**3       RATES FOR THIS TIME STEP      L**3/T
     ------------------                 ------------------------

           IN:                                      IN:
           ---                                      ---
             STORAGE =           0.0000               STORAGE =           0.0000
       CONSTANT HEAD =     1762450.0000         CONSTANT HEAD =       17450.0000
               WELLS =           0.0000                 WELLS =           0.0000

            TOTAL IN =     1762450.0000              TOTAL IN =       17450.0000

          OUT:                                     OUT:
          ----                                     ----
             STORAGE =           0.0000               STORAGE =           0.0000
       CONSTANT HEAD =     1520050.0000         CONSTANT HEAD =       15050.0000
               WELLS =      242400.0000                 WELLS =        2400.0000

           TOTAL OUT =     1762450.0000             TOTAL OUT =       17450.0000

            IN - OUT =           0.0000              IN - OUT =           0.0000

 PERCENT DISCREPANCY =           0.00     PERCENT DISCREPANCY =           0.00






         TIME SUMMARY AT END OF TIME STEP   10 IN STRESS PERIOD    2
                    SECONDS     MINUTES      HOURS       DAYS        YEARS
                    -----------------------------------------------------------
   TIME STEP LENGTH 8.64000E+05  14400.      240.00     10.0000     2.73785E-02
 STRESS PERIOD TIME 8.64000E+06 1.44000E+05  2400.0     100.000     0.27379    
         TOTAL TIME 8.72640E+06 1.45440E+05  2424.0      101.00     0.27652    
1
1
                            STRESS PERIOD NO.    3, LENGTH =  100.00000    
                            -----------------------------------------------

                              NUMBER OF TIME STEPS =    10

                               MULTIPLIER FOR DELT =     1.000

                            INITIAL TIME STEP SIZE =  10.000000    

 WELL NO.  LAYER   ROW   COL   STRESS RATE         
 --------------------------------------------------
      1      1      3      3      -500.0    
      2      1      8      8      -300.0    
      3      2      3      3      -500.0    
      4      2      8      8      -300.0    
      5      3      3      3      -500.0    
      6      3      8      8      -300.0    

      6 WELLS

 CHD NO.   LAYER   ROW   COL    START HEAD        END HEAD         
 ------------------------------------------------------------------
      1      1      1      1      100.00          100.00    
      2      2      1      1      100.00          100.00    
      3      3      1      1      100.00          100.00    
      4      1      2      1      100.00          100.00    
      5      2      2      1      100.00          100.00    
      6      3      2      1      100.00          100.00    
      7      1      3      1      100.00          100.00    
      8      2      3      1      100.00          100.00    
      9      3      3      1      100.00          100.00    
     10      1      4      1      100.00          100.00    
     11      2      4      1      100.00          100.00    
     12      3      4      1      100.00          100.00    
     13      1      5      1      100.00          100.00    
     14      2      5      1      100.00          100.00    
     15      3      5      1      100.00          100.00    
     16      1      6      1      100.00          100.00    
     17      2      6      1      100.00          100.00    
     18      3      6      1      100.00          100.00    
     19      1      7      1      100.00          100.00    
     20      2      7      1      100.00          100.00    
     21      3      7      1      100.00          100.00    
     22      1      8      1      100.00          100.00    
     23      2      8      1      100.00          100.00    
     24      3      8      1      100.00          100.00    
     25      1      9      1      100.00          100.00    
     26      2      9      1      100.00          100.00    
     27      3      9      1      100.00          100.00    
     28      1     10      1      100.00          100.00    
     29      2     10      1      100.00          100.00    
     30      3     10      1      100.00          100.00    
     31      1      1     10       90.00           90.00    
     32      2      1     10       90.00           90.00    
     33      3      1     10       90.00           90.00    
     34      1      2     10       90.00           90.00    
     35      2      2     10       90.00           90.00    
     36      3      2     10       90.00           90.00    
     37      1      3     10       90.00           90.00    
     38      2      3     10       90.00           90.00    
     39      3      3     10       90.00           90.00    
     40      1      4     10       90.00           90.00    
     41      2      4     10       90.00           90.00    
     42      3      4     10       90.00           90.00    
     43      1      5     10       90.00           90.00    
     44      2      5     10       90.00           90.00    
     45      3      5     10       90.00           90.00    
     46      1      6     10       90.00           90.00    
     47      2      6     10       90.00           90.00    
     48      3      6     10       90.00           90.00    
     49      1      7     10       90.00           90.00    
     50      2      7     10       90.00           90.00    
     51      3      7     10       90.00           90.00    
     52      1      8     10       90.00           90.00    
     53      2      8     10       90.00           90.00    
     54      3      8     10       90.00           90.00    
     55      1      9     10       90.00           90.00    
     56      2      9     10       90.00           90.00    
     57      3      9     10       90.00           90.00    
     58      1     10     10       90.00           90.00    
     59      2     10     10       90.00           90.00    
     60      3     10     10       90.00           90.00    


     60 TIME-VARIANT SPECIFIED-HEAD CELLS
 
 SOLVING FOR HEAD 

 NO OUTPUT CONTROL FOR STRESS PERIOD    3   TIME STEP    1
 
 SOLVING FOR HEAD 

 NO OUTPUT CONTROL FOR STRESS PERIOD    3   TIME STEP    2
 
 SOLVING FOR HEAD 

 NO OUTPUT CONTROL FOR STRESS PERIOD    3   TIME STEP    3
 
 SOLVING FOR HEAD 

 NO OUTPUT CONTROL FOR STRESS PERIOD    3   TIME STEP    4
 
 SOLVING FOR HEAD 

 NO OUTPUT CONTROL FOR STRESS PERIOD    3   TIME STEP    5
 
 SOLVING FOR HEAD 

 NO OUTPUT CONTROL FOR STRESS PERIOD    3   TIME STEP    6
 
 SOLVING FOR HEAD 

 NO OUTPUT CONTROL FOR STRESS PERIOD    3   TIME STEP    7
 
 SOLVING FOR HEAD 

 NO OUTPUT CONTROL FOR STRESS PERIOD    3   TIME STEP    8
 
 SOLVING FOR HEAD 

 NO OUTPUT CONTROL FOR STRESS PERIOD    3   TIME STEP    9
 
 SOLVING FOR HEAD 

 OUTPUT CONTROL FOR STRESS PERIOD    3   TIME STEP   10
    PRINT HEAD FOR ALL LAYERS
    PRINT BUDGET
    SAVE HEAD FOR ALL LAYERS
    SAVE BUDGET
 UBDSV1 SAVING "         STORAGE" ON UNIT  53 AT TIME STEP 10, STRESS PERIOD   3
 UBDSV2 SAVING "   CONSTANT HEAD" ON UNIT  53 AT TIME STEP 10, STRESS PERIOD   3
 UBDSV1 SAVING "FLOW RIGHT FACE " ON UNIT  53 AT TIME STEP 10, STRESS PERIOD   3
 UBDSV1 SAVING "FLOW FRONT FACE " ON UNIT  53 AT TIME STEP 10, STRESS PERIOD   3
 UBDSV1 SAVING "FLOW LOWER FACE " ON UNIT  53 AT TIME STEP 10, STRESS PERIOD   3
 UBDSV4 SAVING "           WELLS" ON UNIT  53 AT TIME STEP 10, STRESS PERIOD   3
1
              HEAD IN LAYER   1 AT END OF TIME STEP  10 IN STRESS PERIOD    3
  ---------------------------------------------------------------------------

            1           2           3           4           5           6           7           8           9          10
 ........................................................................................................................
   1   100.00       98.81       97.65       96.52       95.42       94.32       93.24       92.16       91.08       90.00    
   2   100.00       98.80       97.61       96.50       95.41       94.32       93.23       92.15       91.08       90.00    
   3   100.00       98.76       97.49       96.46       95.39       94.31       93.23       92.15       91.07       90.00    
   4   100.00       98.78       97.58       96.47       95.38       94.28       93.19       92.12       91.05       90.00    
   5   100.00       98.81       97.63       96.48       95.35       94.23       93.13       92.05       91.01       90.00    
   6   100.00       98.82       97.64       96.48       95.32       94.17       93.03       91.93       90.95       90.00    
   7   100.00       98.82       97.64       96.46       95.29       94.10       92.90       91.71       90.84       90.00    
   8   100.00       98.81       97.61       96.40       95.16       93.81       92.07       88.73       90.11       90.00    
   9   100.00       98.79       97.56       96.32       95.03       93.66       92.15       90.57       90.29       90.00    
  10   100.00       98.78       97.54       96.28       94.99       93.65       92.30       91.11       90.47       90.00    
1
              HEAD IN LAYER   2 AT END OF TIME STEP  10 IN STRESS PERIOD    3
  ---------------------------------------------------------------------------

            1           2           3           4           5           6           7           8           9          10
 ........................................................................................................................
   1   100.00       98.81       97.65       96.52       95.42       94.32       93.24       92.16       91.08       90.00    
   2   100.00       98.80       97.61       96.50       95.41       94.32       93.23       92.15       91.08       90.00    
   3   100.00       98.76       97.49       96.46       95.39       94.31       93.23       92.15       91.07       90.00    
   4   100.00       98.78       97.58       96.47       95.38       94.28       93.19       92.12       91.05       90.00    
   5   100.00       98.81       97.63       96.48       95.35       94.23       93.13       92.05       91.01       90.00    
   6   100.00       98.82       97.64       96.48       95.32       94.17       93.03       91.93       90.95       90.00    
   7   100.00       98.82       97.64       96.46       95.29       94.10       92.90       91.71       90.84       90.00    
   8   100.00       98.81       97.61       96.40       95.16       93.81       92.07       88.73       90.11       90.00    
   9   100.00       98.79       97.56       96.32       95.03       93.66       92.15       90.57       90.29       90.00    
  10   100.00       98.78       97.54       96.28       94.99       93.65       92.30       91.11       90.47       90.00    
1
              HEAD IN LAYER   3 AT END OF TIME STEP  10 IN STRESS PERIOD    3
  ---------------------------------------------------------------------------

            1           2           3           4           5           6           7           8           9          10
 ........................................................................................................................
   1   100.00       98.81       97.65       96.52       95.42       94.32       93.24       92.16       91.08       90.00    
   2   100.00       98.80       97.61       96.50       95.41       94.32       93.23       92.15       91.08       90.00    
   3   100.00       98.76       97.49       96.46       95.39       94.31       93.23       92.15       91.07       90.00    
   4   100.00       98.78       97.58       96.47       95.38       94.28       93.19       92.12       91.05       90.00    
   5   100.00       98.81       97.63       96.48       95.35       94.23       93.13       92.05       91.01       90.00    
   6   100.00       98.82       97.64       96.48       95.32       94.17       93.03       91.93       90.95       90.00    
   7   100.00       98.82       97.64       96.46       95.29       94.10       92.90       91.71       90.84       90.00    
   8   100.00       98.81       97.61       96.40       95.16       93.81       92.07       88.73       90.11       90.00    
   9   100.00       98.79       97.56       96.32       95.03       93.66       92.15       90.57       90.29       90.00    
  10   100.00       98.78       97.54       96.28       94.99       93.65       92.30       91.11       90.47       90.00    

 HEAD WILL BE SAVED ON UNIT   51 AT END OF TIME STEP   10, STRESS PERIOD    3
1
  VOLUMETRIC BUDGET FOR ENTIRE MODEL AT END OF TIME STEP   10, STRESS PERIOD   3
  ------------------------------------------------------------------------------

     CUMULATIVE VOLUMES      L**3       RATES FOR THIS TIME STEP      L**3/T
     ------------------                 ------------------------

           IN:                                      IN:
           ---                                      ---
             STORAGE =           0.0000               STORAGE =           0.0000
       CONSTANT HEAD =     3507450.0000         CONSTANT HEAD =       17450.0000
               WELLS =           0.0000                 WELLS =           0.0000

            TOTAL IN =     3507450.0000              TOTAL IN =       17450.0000

          OUT:                                     OUT:
          ----                                     ----
             STORAGE =           0.0000               STORAGE =           0.0000
       CONSTANT HEAD =     3025050.0000         CONSTANT HEAD =       15050.0000
               WELLS =      482400.0000                 WELLS =        2400.0000

           TOTAL OUT =     3507450.0000             TOTAL OUT =       17450.0000

            IN - OUT =           0.0000              IN - OUT =           0.0000

 PERCENT DISCREPANCY =           0.00     PERCENT DISCREPANCY =           0.00






         TIME SUMMARY AT END OF TIME STEP   10 IN STRESS PERIOD    3
                    SECONDS     MINUTES      HOURS       DAYS        YEARS
                    -----------------------------------------------------------
   TIME STEP LENGTH 8.64000E+05  14400.      240.00     10.0000     2.73785E-02
 STRESS PERIOD TIME 8.64000E+06 1.44000E+05  2400.0     100.000     0.27379    
         TOTAL TIME 1.73664E+07 2.89440E+05  4824.0      201.00     0.55031    
1

 Run end date and time (yyyy/mm/dd hh:mm:ss): 2025/08/08  9:11:29
 Elapsed run time:  0.250 Seconds

