                                  MODFLOW-2005     
      U.S. GEOLOGICAL SURVEY MODULAR FINITE-DIFFERENCE GROUND-WATER FLOW MODEL
                            VERSION 1.12.00 2/3/2017

 LIST FILE: oc_demo.list
                         UNIT    2

 OPENING oc_demo.dis
 FILE TYPE:DIS   UNIT   11   STATUS:OLD    
 FORMAT:FORMATTED              ACCESS:SEQUENTIAL          

 OPENING oc_demo.bas
 FILE TYPE:BAS6   UNIT   13   STATUS:OLD    
 FORMAT:FORMATTED              ACCESS:SEQUENTIAL          

 OPENING oc_demo.lpf
 FILE TYPE:LPF   UNIT   15   STATUS:OLD    
 FORMAT:FORMATTED              ACCESS:SEQUENTIAL          

 OPENING oc_demo.wel
 FILE TYPE:WEL   UNIT   20   STATUS:OLD    
 FORMAT:FORMATTED              ACCESS:SEQUENTIAL          

 OPENING oc_demo.hds
 FILE TYPE:OC   UNIT   30   STATUS:OLD    
 FORMAT:FORMATTED              ACCESS:SEQUENTIAL          

 OPENING oc_demo.pcg
 FILE TYPE:PCG   UNIT   27   STATUS:OLD    
 FORMAT:FORMATTED              ACCESS:SEQUENTIAL          

 OPENING oc_demo.cbc
 FILE TYPE:DATA   UNIT   31   STATUS:UNKNOWN
 FORMAT:FORMATTED              ACCESS:SEQUENTIAL          

 BAS -- BASIC PACKAGE, VERSION 7, 5/2/2005 INPUT READ FROM UNIT   13
 
 MODFLOW was compiled using mixed precision
 Precision of REAL variables:           6
 Precision of DOUBLE PRECISION variables:          15

 DISCRETIZATION INPUT DATA READ FROM UNIT   11
 # DIS package for MODFLOW-2005 generated by Flopy 3.9.3
    2 LAYERS        15 ROWS        20 COLUMNS
    5 STRESS PERIOD(S) IN SIMULATION
 MODEL TIME UNIT IS DAYS
 MODEL LENGTH UNIT IS METERS
  Confining bed flag for each layer:
   0   0



                               DELR
 READING ON UNIT   11 WITH FORMAT: (20E15.6)           



                               DELC
 READING ON UNIT   11 WITH FORMAT: (15E15.6)           

 TOP ELEVATION OF LAYER 1 =   50.0000    

   MODEL LAYER BOTTOM EL. =   20.0000     FOR LAYER   1

   MODEL LAYER BOTTOM EL. =   0.00000     FOR LAYER   2


 STRESS PERIOD     LENGTH       TIME STEPS     MULTIPLIER FOR DELT    SS FLAG
 ----------------------------------------------------------------------------
        1         365.0000          1                    1.000         SS
        2         365.0000         12                    1.000         TR
        3         365.0000         12                    1.000         TR
        4         365.0000          4                    1.000         TR
        5         365.0000          1                    1.000         SS

 COMBINED STEADY-STATE AND TRANSIENT SIMULATION



 
 # BAS6 package for MODFLOW-2005 generated by Flopy 3.9.3                        
 THE FREE FORMAT OPTION HAS BEEN SELECTED



                     BOUNDARY ARRAY FOR LAYER   1
 READING ON UNIT   13 WITH FORMAT: (20I10)             



                     BOUNDARY ARRAY FOR LAYER   2
 READING ON UNIT   13 WITH FORMAT: (20I10)             

 AQUIFER HEAD WILL BE SET TO  -999.99     AT ALL NO-FLOW NODES (IBOUND=0).



                       INITIAL HEAD FOR LAYER   1
 READING ON UNIT   13 WITH FORMAT: (20E15.6)           



                       INITIAL HEAD FOR LAYER   2
 READING ON UNIT   13 WITH FORMAT: (20E15.6)           
 # OC package for MODFLOW-2005 generated by Flopy 3.9.3

 OUTPUT CONTROL IS SPECIFIED ONLY AT TIME STEPS FOR WHICH OUTPUT IS DESIRED
 HEADS WILL BE SAVED WITH FORMAT: (10G13.6)           
 SAVED HEADS WILL BE LABELED
 COMPACT CELL-BY-CELL BUDGET FILES WILL BE WRITTEN
 AUXILIARY DATA WILL BE SAVED IN CELL-BY-CELL BUDGET FILES
 HEAD PRINT FORMAT CODE IS   0    DRAWDOWN PRINT FORMAT CODE IS   0
 HEADS WILL BE SAVED ON UNIT   31    DRAWDOWNS WILL BE SAVED ON UNIT    0

 LPF -- LAYER-PROPERTY FLOW PACKAGE, VERSION 7, 5/2/2005
         INPUT READ FROM UNIT   15
 # LPF package for MODFLOW-2005 generated by Flopy 3.9.3
 HEAD AT CELLS THAT CONVERT TO DRY= -1.00000E+30
 No named parameters

   LAYER FLAGS:
 LAYER       LAYTYP        LAYAVG         CHANI        LAYVKA        LAYWET
 ---------------------------------------------------------------------------
    1             1             0     1.000E+00             0             0
    2             1             0     1.000E+00             0             0

   INTERPRETATION OF LAYER FLAGS:
                        INTERBLOCK     HORIZONTAL    DATA IN
         LAYER TYPE   TRANSMISSIVITY   ANISOTROPY   ARRAY VKA   WETTABILITY
 LAYER      (LAYTYP)      (LAYAVG)       (CHANI)      (LAYVKA)      (LAYWET)
 ---------------------------------------------------------------------------
    1   CONVERTIBLE      HARMONIC     1.000E+00    VERTICAL K  NON-WETTABLE
    2   CONVERTIBLE      HARMONIC     1.000E+00    VERTICAL K  NON-WETTABLE

 WETTING CAPABILITY IS NOT ACTIVE IN ANY LAYER



              HYD. COND. ALONG ROWS FOR LAYER   1
 READING ON UNIT   15 WITH FORMAT: (20E15.6)           



                VERTICAL HYD. COND. FOR LAYER   1
 READING ON UNIT   15 WITH FORMAT: (20E15.6)           

         SPECIFIC STORAGE =  1.000000E-05 FOR LAYER   1

           SPECIFIC YIELD =  0.150000     FOR LAYER   1



              HYD. COND. ALONG ROWS FOR LAYER   2
 READING ON UNIT   15 WITH FORMAT: (20E15.6)           



                VERTICAL HYD. COND. FOR LAYER   2
 READING ON UNIT   15 WITH FORMAT: (20E15.6)           

         SPECIFIC STORAGE =  1.000000E-05 FOR LAYER   2

           SPECIFIC YIELD =  0.150000     FOR LAYER   2

 WEL -- WELL PACKAGE, VERSION 7, 5/2/2005 INPUT READ FROM UNIT   20
 # WEL package for MODFLOW-2005 generated by Flopy 3.9.3
 No named parameters
 MAXIMUM OF      2 ACTIVE WELLS AT ONE TIME


     0 Well parameters

 PCG -- CONJUGATE-GRADIENT SOLUTION PACKAGE, VERSION 7, 5/2/2005
 # PCG package for MODFLOW-2005 generated by Flopy 3.9.3
 MAXIMUM OF    100 CALLS OF SOLUTION ROUTINE
 MAXIMUM OF     30 INTERNAL ITERATIONS PER CALL TO SOLUTION ROUTINE
 MATRIX PRECONDITIONING TYPE :    1



                                    SOLUTION BY THE CONJUGATE-GRADIENT METHOD
                                   -------------------------------------------
                    MAXIMUM NUMBER OF CALLS TO PCG ROUTINE =      100
                        MAXIMUM ITERATIONS PER CALL TO PCG =       30
                               MATRIX PRECONDITIONING TYPE =        1
        RELAXATION FACTOR (ONLY USED WITH PRECOND. TYPE 1) =    0.10000E+01
 PARAMETER OF POLYNOMIAL PRECOND. = 2 (2) OR IS CALCULATED :        0
                         HEAD CHANGE CRITERION FOR CLOSURE =    0.10000E-03
                     RESIDUAL CHANGE CRITERION FOR CLOSURE =    0.10000E-02
            PCG HEAD AND RESIDUAL CHANGE PRINTOUT INTERVAL =      999
     PRINTING FROM SOLVER IS LIMITED(1) OR SUPPRESSED (>1) =        3
                            STEADY-STATE DAMPING PARAMETER =    0.10000E+01
                               TRANSIENT DAMPING PARAMETER =    0.10000E+01
1
                            STRESS PERIOD NO.    1, LENGTH =   365.0000    
                            -----------------------------------------------

                              NUMBER OF TIME STEPS =     1

                               MULTIPLIER FOR DELT =     1.000

                            INITIAL TIME STEP SIZE =   365.0000    

      0 WELLS
 
 SOLVING FOR HEAD 

 OUTPUT CONTROL FOR STRESS PERIOD    1   TIME STEP    1
    SAVE HEAD FOR ALL LAYERS
    SAVE BUDGET
    PRINT HEAD FOR ALL LAYERS
    PRINT BUDGET
1
              HEAD IN LAYER   1 AT END OF TIME STEP   1 IN STRESS PERIOD    1
  ---------------------------------------------------------------------------

            1           2           3           4           5           6           7           8           9          10
           11          12          13          14          15          16          17          18          19          20
 ........................................................................................................................
   1  -1000.0     -1000.0     -1000.0     -1000.0     -1000.0     -1000.0     -1000.0     -1000.0     -1000.0     -1000.0    
      -1000.0     -1000.0     -1000.0     -1000.0     -1000.0     -1000.0     -1000.0     -1000.0     -1000.0     -1000.0    
   2  -1000.0       37.55       37.55       37.55       37.55       37.55       37.55       37.55       37.55       37.55    
        37.55       37.55       37.55       37.55       37.55       37.55       37.55       37.55       37.55     -1000.0    
   3  -1000.0       37.55       37.55       37.55       37.55       37.55       37.55       37.55       37.55       37.55    
        37.55       37.55       37.55       37.55       37.55       37.55       37.55       37.55       37.55     -1000.0    
   4  -1000.0       37.55       37.55       37.55       37.55       37.55       37.55       37.55       37.55       37.55    
        37.55       37.55       37.55       37.55       37.55       37.55       37.55       37.55       37.55     -1000.0    
   5  -1000.0       37.55       37.55       37.55       37.55       37.55       37.55       37.55       37.55       37.55    
        37.55       37.55       37.55       37.55       37.55       37.55       37.55       37.55       37.55     -1000.0    
   6  -1000.0       37.55       37.55       37.55       37.55       37.55       37.55       37.55       37.55       37.55    
        37.55       37.55       37.55       37.55       37.55       37.55       37.55       37.55       37.55     -1000.0    
   7  -1000.0       37.55       37.55       37.55       37.55       37.55       37.55       37.55       37.55       37.55    
        37.55       37.55       37.55       37.55       37.55       37.55       37.55       37.55       37.55     -1000.0    
   8  -1000.0       37.55       37.55       37.55       37.55       37.55       37.55       37.55       37.55       37.55    
        37.55       37.55       37.55       37.55       37.55       37.55       37.55       37.55       37.55     -1000.0    
   9  -1000.0       37.55       37.55       37.55       37.55       37.55       37.55       37.55       37.55       37.55    
        37.55       37.55       37.55       37.55       37.55       37.55       37.55       37.55       37.55     -1000.0    
  10  -1000.0       37.55       37.55       37.55       37.55       37.55       37.55       37.55       37.55       37.55    
        37.55       37.55       37.55       37.55       37.55       37.55       37.55       37.55       37.55     -1000.0    
  11  -1000.0       37.55       37.55       37.55       37.55       37.55       37.55       37.55       37.55       37.55    
        37.55       37.55       37.55       37.55       37.55       37.55       37.55       37.55       37.55     -1000.0    
  12  -1000.0       37.55       37.55       37.55       37.55       37.55       37.55       37.55       37.55       37.55    
        37.55       37.55       37.55       37.55       37.55       37.55       37.55       37.55       37.55     -1000.0    
  13  -1000.0       37.55       37.55       37.55       37.55       37.55       37.55       37.55       37.55       37.55    
        37.55       37.55       37.55       37.55       37.55       37.55       37.55       37.55       37.55     -1000.0    
  14  -1000.0       37.55       37.55       37.55       37.55       37.55       37.55       37.55       37.55       37.55    
        37.55       37.55       37.55       37.55       37.55       37.55       37.55       37.55       37.55     -1000.0    
  15  -1000.0     -1000.0     -1000.0     -1000.0     -1000.0     -1000.0     -1000.0     -1000.0     -1000.0     -1000.0    
      -1000.0     -1000.0     -1000.0     -1000.0     -1000.0     -1000.0     -1000.0     -1000.0     -1000.0     -1000.0    
1
              HEAD IN LAYER   2 AT END OF TIME STEP   1 IN STRESS PERIOD    1
  ---------------------------------------------------------------------------

            1           2           3           4           5           6           7           8           9          10
           11          12          13          14          15          16          17          18          19          20
 ........................................................................................................................
   1  -1000.0     -1000.0     -1000.0     -1000.0     -1000.0     -1000.0     -1000.0     -1000.0     -1000.0     -1000.0    
      -1000.0     -1000.0     -1000.0     -1000.0     -1000.0     -1000.0     -1000.0     -1000.0     -1000.0     -1000.0    
   2  -1000.0       37.55       37.55       37.55       37.55       37.55       37.55       37.55       37.55       37.55    
        37.55       37.55       37.55       37.55       37.55       37.55       37.55       37.55       37.55     -1000.0    
   3  -1000.0       37.55       37.55       37.55       37.55       37.55       37.55       37.55       37.55       37.55    
        37.55       37.55       37.55       37.55       37.55       37.55       37.55       37.55       37.55     -1000.0    
   4  -1000.0       37.55       37.55       37.55       37.55       37.55       37.55       37.55       37.55       37.55    
        37.55       37.55       37.55       37.55       37.55       37.55       37.55       37.55       37.55     -1000.0    
   5  -1000.0       37.55       37.55       37.55       37.55       37.55       37.55       37.55       37.55       37.55    
        37.55       37.55       37.55       37.55       37.55       37.55       37.55       37.55       37.55     -1000.0    
   6  -1000.0       37.55       37.55       37.55       37.55       37.55       37.55       37.55       37.55       37.55    
        37.55       37.55       37.55       37.55       37.55       37.55       37.55       37.55       37.55     -1000.0    
   7  -1000.0       37.55       37.55       37.55       37.55       37.55       37.55       37.55       37.55       37.55    
        37.55       37.55       37.55       37.55       37.55       37.55       37.55       37.55       37.55     -1000.0    
   8  -1000.0       37.55       37.55       37.55       37.55       37.55       37.55       37.55       37.55       37.55    
        37.55       37.55       37.55       37.55       37.55       37.55       37.55       37.55       37.55     -1000.0    
   9  -1000.0       37.55       37.55       37.55       37.55       37.55       37.55       37.55       37.55       37.55    
        37.55       37.55       37.55       37.55       37.55       37.55       37.55       37.55       37.55     -1000.0    
  10  -1000.0       37.55       37.55       37.55       37.55       37.55       37.55       37.55       37.55       37.55    
        37.55       37.55       37.55       37.55       37.55       37.55       37.55       37.55       37.55     -1000.0    
  11  -1000.0       37.55       37.55       37.55       37.55       37.55       37.55       37.55       37.55       37.55    
        37.55       37.55       37.55       37.55       37.55       37.55       37.55       37.55       37.55     -1000.0    
  12  -1000.0       37.55       37.55       37.55       37.55       37.55       37.55       37.55       37.55       37.55    
        37.55       37.55       37.55       37.55       37.55       37.55       37.55       37.55       37.55     -1000.0    
  13  -1000.0       37.55       37.55       37.55       37.55       37.55       37.55       37.55       37.55       37.55    
        37.55       37.55       37.55       37.55       37.55       37.55       37.55       37.55       37.55     -1000.0    
  14  -1000.0       37.55       37.55       37.55       37.55       37.55       37.55       37.55       37.55       37.55    
        37.55       37.55       37.55       37.55       37.55       37.55       37.55       37.55       37.55     -1000.0    
  15  -1000.0     -1000.0     -1000.0     -1000.0     -1000.0     -1000.0     -1000.0     -1000.0     -1000.0     -1000.0    
      -1000.0     -1000.0     -1000.0     -1000.0     -1000.0     -1000.0     -1000.0     -1000.0     -1000.0     -1000.0    

 HEAD WILL BE SAVED ON UNIT   31 AT END OF TIME STEP    1, STRESS PERIOD    1
1
  VOLUMETRIC BUDGET FOR ENTIRE MODEL AT END OF TIME STEP    1, STRESS PERIOD   1
  ------------------------------------------------------------------------------

     CUMULATIVE VOLUMES      L**3       RATES FOR THIS TIME STEP      L**3/T
     ------------------                 ------------------------

           IN:                                      IN:
           ---                                      ---
             STORAGE =           0.0000               STORAGE =           0.0000
       CONSTANT HEAD =           0.0000         CONSTANT HEAD =           0.0000
               WELLS =           0.0000                 WELLS =           0.0000

            TOTAL IN =           0.0000              TOTAL IN =           0.0000

          OUT:                                     OUT:
          ----                                     ----
             STORAGE =           0.0000               STORAGE =           0.0000
       CONSTANT HEAD =           0.0000         CONSTANT HEAD =           0.0000
               WELLS =           0.0000                 WELLS =           0.0000

           TOTAL OUT =           0.0000             TOTAL OUT =           0.0000

            IN - OUT =           0.0000              IN - OUT =           0.0000

 PERCENT DISCREPANCY =           0.00     PERCENT DISCREPANCY =           0.00






         TIME SUMMARY AT END OF TIME STEP    1 IN STRESS PERIOD    1
                    SECONDS     MINUTES      HOURS       DAYS        YEARS
                    -----------------------------------------------------------
   TIME STEP LENGTH 3.15360E+07 5.25600E+05  8760.0      365.00     0.99932    
 STRESS PERIOD TIME 3.15360E+07 5.25600E+05  8760.0      365.00     0.99932    
         TOTAL TIME 3.15360E+07 5.25600E+05  8760.0      365.00     0.99932    
1
1
                            STRESS PERIOD NO.    2, LENGTH =   365.0000    
                            -----------------------------------------------

                              NUMBER OF TIME STEPS =    12

                               MULTIPLIER FOR DELT =     1.000

                            INITIAL TIME STEP SIZE =   30.41667    

 WELL NO.  LAYER   ROW   COL   STRESS RATE         
 --------------------------------------------------
      1      1      8     11      -1000.    

      1 WELL 
 
 SOLVING FOR HEAD 

 NO OUTPUT CONTROL FOR STRESS PERIOD    2   TIME STEP    1
 
 SOLVING FOR HEAD 

 NO OUTPUT CONTROL FOR STRESS PERIOD    2   TIME STEP    2
 
 SOLVING FOR HEAD 

 OUTPUT CONTROL FOR STRESS PERIOD    2   TIME STEP    3
    SAVE HEAD FOR ALL LAYERS
    SAVE BUDGET

 HEAD WILL BE SAVED ON UNIT   31 AT END OF TIME STEP    3, STRESS PERIOD    2
 
 SOLVING FOR HEAD 

 NO OUTPUT CONTROL FOR STRESS PERIOD    2   TIME STEP    4
 
 SOLVING FOR HEAD 

 NO OUTPUT CONTROL FOR STRESS PERIOD    2   TIME STEP    5
 
 SOLVING FOR HEAD 

 OUTPUT CONTROL FOR STRESS PERIOD    2   TIME STEP    6
    SAVE HEAD FOR ALL LAYERS
    SAVE BUDGET
    PRINT HEAD FOR ALL LAYERS
1
              HEAD IN LAYER   1 AT END OF TIME STEP   6 IN STRESS PERIOD    2
  ---------------------------------------------------------------------------

            1           2           3           4           5           6           7           8           9          10
           11          12          13          14          15          16          17          18          19          20
 ........................................................................................................................
   1  -1000.0     -1000.0     -1000.0     -1000.0     -1000.0     -1000.0     -1000.0     -1000.0     -1000.0     -1000.0    
      -1000.0     -1000.0     -1000.0     -1000.0     -1000.0     -1000.0     -1000.0     -1000.0     -1000.0     -1000.0    
   2  -1000.0       37.28       37.27       37.25       37.22       37.18       37.14       37.10       37.06       37.03    
        37.02       37.03       37.05       37.08       37.12       37.15       37.18       37.20       37.22     -1000.0    
   3  -1000.0       37.28       37.26       37.24       37.21       37.17       37.13       37.08       37.03       37.00    
        36.98       36.99       37.02       37.06       37.10       37.14       37.18       37.20       37.21     -1000.0    
   4  -1000.0       37.27       37.26       37.23       37.20       37.15       37.10       37.04       36.98       36.93    
        36.91       36.92       36.97       37.02       37.08       37.13       37.16       37.19       37.20     -1000.0    
   5  -1000.0       37.26       37.25       37.22       37.18       37.13       37.06       36.98       36.89       36.82    
        36.78       36.81       36.88       36.96       37.04       37.10       37.15       37.18       37.19     -1000.0    
   6  -1000.0       37.26       37.24       37.21       37.17       37.10       37.02       36.91       36.78       36.65    
        36.56       36.64       36.77       36.89       37.00       37.07       37.13       37.17       37.18     -1000.0    
   7  -1000.0       37.25       37.24       37.21       37.16       37.08       36.98       36.84       36.66       36.40    
        36.13       36.40       36.65       36.83       36.96       37.05       37.12       37.16       37.18     -1000.0    
   8  -1000.0       37.25       37.24       37.20       37.15       37.07       36.97       36.81       36.57       36.14    
        34.98       36.13       36.56       36.80       36.95       37.05       37.11       37.16       37.18     -1000.0    
   9  -1000.0       37.25       37.24       37.21       37.16       37.08       36.98       36.84       36.66       36.40    
        36.13       36.40       36.65       36.83       36.96       37.05       37.12       37.16       37.18     -1000.0    
  10  -1000.0       37.26       37.24       37.21       37.17       37.10       37.02       36.91       36.78       36.65    
        36.56       36.64       36.77       36.89       37.00       37.07       37.13       37.17       37.18     -1000.0    
  11  -1000.0       37.26       37.25       37.22       37.18       37.13       37.06       36.98       36.89       36.82    
        36.78       36.81       36.88       36.96       37.04       37.10       37.15       37.18       37.19     -1000.0    
  12  -1000.0       37.27       37.26       37.23       37.20       37.15       37.10       37.04       36.98       36.93    
        36.91       36.92       36.97       37.02       37.08       37.13       37.16       37.19       37.20     -1000.0    
  13  -1000.0       37.28       37.26       37.24       37.21       37.17       37.13       37.08       37.03       37.00    
        36.98       36.99       37.02       37.06       37.10       37.14       37.18       37.20       37.21     -1000.0    
  14  -1000.0       37.28       37.27       37.25       37.22       37.18       37.14       37.10       37.06       37.03    
        37.02       37.03       37.05       37.08       37.12       37.15       37.18       37.20       37.22     -1000.0    
  15  -1000.0     -1000.0     -1000.0     -1000.0     -1000.0     -1000.0     -1000.0     -1000.0     -1000.0     -1000.0    
      -1000.0     -1000.0     -1000.0     -1000.0     -1000.0     -1000.0     -1000.0     -1000.0     -1000.0     -1000.0    
1
              HEAD IN LAYER   2 AT END OF TIME STEP   6 IN STRESS PERIOD    2
  ---------------------------------------------------------------------------

            1           2           3           4           5           6           7           8           9          10
           11          12          13          14          15          16          17          18          19          20
 ........................................................................................................................
   1  -1000.0     -1000.0     -1000.0     -1000.0     -1000.0     -1000.0     -1000.0     -1000.0     -1000.0     -1000.0    
      -1000.0     -1000.0     -1000.0     -1000.0     -1000.0     -1000.0     -1000.0     -1000.0     -1000.0     -1000.0    
   2  -1000.0       37.28       37.26       37.24       37.22       37.18       37.14       37.09       37.06       37.03    
        37.02       37.02       37.05       37.08       37.12       37.15       37.18       37.20       37.21     -1000.0    
   3  -1000.0       37.27       37.26       37.24       37.21       37.17       37.12       37.07       37.03       37.00    
        36.98       36.99       37.02       37.06       37.10       37.14       37.17       37.20       37.21     -1000.0    
   4  -1000.0       37.27       37.26       37.23       37.20       37.15       37.09       37.03       36.97       36.93    
        36.91       36.92       36.96       37.02       37.07       37.12       37.16       37.19       37.20     -1000.0    
   5  -1000.0       37.26       37.25       37.22       37.18       37.13       37.06       36.98       36.89       36.81    
        36.78       36.81       36.88       36.96       37.04       37.10       37.14       37.18       37.19     -1000.0    
   6  -1000.0       37.26       37.24       37.21       37.17       37.10       37.01       36.91       36.78       36.64    
        36.56       36.64       36.77       36.89       36.99       37.07       37.13       37.16       37.18     -1000.0    
   7  -1000.0       37.25       37.24       37.20       37.15       37.08       36.98       36.84       36.65       36.41    
        36.16       36.40       36.64       36.83       36.96       37.05       37.12       37.16       37.18     -1000.0    
   8  -1000.0       37.25       37.23       37.20       37.15       37.07       36.96       36.81       36.57       36.17    
        35.47       36.17       36.56       36.79       36.94       37.04       37.11       37.15       37.17     -1000.0    
   9  -1000.0       37.25       37.24       37.20       37.15       37.08       36.98       36.84       36.65       36.41    
        36.16       36.40       36.64       36.83       36.96       37.05       37.12       37.16       37.18     -1000.0    
  10  -1000.0       37.26       37.24       37.21       37.17       37.10       37.01       36.91       36.78       36.64    
        36.56       36.64       36.77       36.89       36.99       37.07       37.13       37.16       37.18     -1000.0    
  11  -1000.0       37.26       37.25       37.22       37.18       37.13       37.06       36.98       36.89       36.81    
        36.78       36.81       36.88       36.96       37.04       37.10       37.14       37.18       37.19     -1000.0    
  12  -1000.0       37.27       37.26       37.23       37.20       37.15       37.09       37.03       36.97       36.93    
        36.91       36.92       36.96       37.02       37.07       37.12       37.16       37.19       37.20     -1000.0    
  13  -1000.0       37.27       37.26       37.24       37.21       37.17       37.12       37.07       37.03       37.00    
        36.98       36.99       37.02       37.06       37.10       37.14       37.17       37.20       37.21     -1000.0    
  14  -1000.0       37.28       37.26       37.24       37.22       37.18       37.14       37.09       37.06       37.03    
        37.02       37.02       37.05       37.08       37.12       37.15       37.18       37.20       37.21     -1000.0    
  15  -1000.0     -1000.0     -1000.0     -1000.0     -1000.0     -1000.0     -1000.0     -1000.0     -1000.0     -1000.0    
      -1000.0     -1000.0     -1000.0     -1000.0     -1000.0     -1000.0     -1000.0     -1000.0     -1000.0     -1000.0    

 HEAD WILL BE SAVED ON UNIT   31 AT END OF TIME STEP    6, STRESS PERIOD    2



         TIME SUMMARY AT END OF TIME STEP    6 IN STRESS PERIOD    2
                    SECONDS     MINUTES      HOURS       DAYS        YEARS
                    -----------------------------------------------------------
   TIME STEP LENGTH 2.62800E+06  43800.      730.00      30.417     8.32763E-02
 STRESS PERIOD TIME 1.57680E+07 2.62800E+05  4380.0      182.50     0.49966    
         TOTAL TIME 4.73040E+07 7.88400E+05  13140.      547.50      1.4990    
1
 
 SOLVING FOR HEAD 

 NO OUTPUT CONTROL FOR STRESS PERIOD    2   TIME STEP    7
 
 SOLVING FOR HEAD 

 NO OUTPUT CONTROL FOR STRESS PERIOD    2   TIME STEP    8
 
 SOLVING FOR HEAD 

 OUTPUT CONTROL FOR STRESS PERIOD    2   TIME STEP    9
    SAVE HEAD FOR ALL LAYERS
    SAVE BUDGET

 HEAD WILL BE SAVED ON UNIT   31 AT END OF TIME STEP    9, STRESS PERIOD    2
 
 SOLVING FOR HEAD 

 NO OUTPUT CONTROL FOR STRESS PERIOD    2   TIME STEP   10
 
 SOLVING FOR HEAD 

 NO OUTPUT CONTROL FOR STRESS PERIOD    2   TIME STEP   11
 
 SOLVING FOR HEAD 

 OUTPUT CONTROL FOR STRESS PERIOD    2   TIME STEP   12
    SAVE HEAD FOR ALL LAYERS
    SAVE BUDGET
    PRINT HEAD FOR ALL LAYERS
    PRINT BUDGET
1
              HEAD IN LAYER   1 AT END OF TIME STEP  12 IN STRESS PERIOD    2
  ---------------------------------------------------------------------------

            1           2           3           4           5           6           7           8           9          10
           11          12          13          14          15          16          17          18          19          20
 ........................................................................................................................
   1  -1000.0     -1000.0     -1000.0     -1000.0     -1000.0     -1000.0     -1000.0     -1000.0     -1000.0     -1000.0    
      -1000.0     -1000.0     -1000.0     -1000.0     -1000.0     -1000.0     -1000.0     -1000.0     -1000.0     -1000.0    
   2  -1000.0       36.80       36.78       36.76       36.72       36.68       36.63       36.58       36.54       36.50    
        36.49       36.49       36.52       36.55       36.59       36.63       36.66       36.68       36.69     -1000.0    
   3  -1000.0       36.79       36.78       36.75       36.72       36.67       36.62       36.56       36.51       36.47    
        36.45       36.46       36.49       36.53       36.57       36.61       36.65       36.67       36.69     -1000.0    
   4  -1000.0       36.79       36.77       36.75       36.70       36.65       36.59       36.52       36.45       36.40    
        36.37       36.39       36.43       36.49       36.54       36.59       36.64       36.66       36.68     -1000.0    
   5  -1000.0       36.78       36.77       36.74       36.69       36.63       36.55       36.46       36.37       36.28    
        36.24       36.27       36.34       36.43       36.50       36.57       36.62       36.65       36.67     -1000.0    
   6  -1000.0       36.78       36.76       36.72       36.67       36.60       36.51       36.39       36.25       36.11    
        36.01       36.10       36.23       36.36       36.46       36.54       36.60       36.64       36.66     -1000.0    
   7  -1000.0       36.77       36.75       36.72       36.66       36.58       36.47       36.32       36.12       35.86    
        35.58       35.85       36.10       36.29       36.42       36.52       36.59       36.63       36.65     -1000.0    
   8  -1000.0       36.77       36.75       36.71       36.66       36.57       36.45       36.29       36.04       35.59    
        34.40       35.58       36.02       36.26       36.41       36.51       36.58       36.63       36.65     -1000.0    
   9  -1000.0       36.77       36.75       36.72       36.66       36.58       36.47       36.32       36.12       35.86    
        35.58       35.85       36.10       36.29       36.42       36.52       36.59       36.63       36.65     -1000.0    
  10  -1000.0       36.78       36.76       36.72       36.67       36.60       36.51       36.39       36.25       36.11    
        36.01       36.10       36.23       36.36       36.46       36.54       36.60       36.64       36.66     -1000.0    
  11  -1000.0       36.78       36.77       36.74       36.69       36.63       36.55       36.46       36.37       36.28    
        36.24       36.27       36.34       36.43       36.50       36.57       36.62       36.65       36.67     -1000.0    
  12  -1000.0       36.79       36.77       36.75       36.70       36.65       36.59       36.52       36.45       36.40    
        36.37       36.39       36.43       36.49       36.54       36.59       36.64       36.66       36.68     -1000.0    
  13  -1000.0       36.79       36.78       36.75       36.72       36.67       36.62       36.56       36.51       36.47    
        36.45       36.46       36.49       36.53       36.57       36.61       36.65       36.67       36.69     -1000.0    
  14  -1000.0       36.80       36.78       36.76       36.72       36.68       36.63       36.58       36.54       36.50    
        36.49       36.49       36.52       36.55       36.59       36.63       36.66       36.68       36.69     -1000.0    
  15  -1000.0     -1000.0     -1000.0     -1000.0     -1000.0     -1000.0     -1000.0     -1000.0     -1000.0     -1000.0    
      -1000.0     -1000.0     -1000.0     -1000.0     -1000.0     -1000.0     -1000.0     -1000.0     -1000.0     -1000.0    
1
              HEAD IN LAYER   2 AT END OF TIME STEP  12 IN STRESS PERIOD    2
  ---------------------------------------------------------------------------

            1           2           3           4           5           6           7           8           9          10
           11          12          13          14          15          16          17          18          19          20
 ........................................................................................................................
   1  -1000.0     -1000.0     -1000.0     -1000.0     -1000.0     -1000.0     -1000.0     -1000.0     -1000.0     -1000.0    
      -1000.0     -1000.0     -1000.0     -1000.0     -1000.0     -1000.0     -1000.0     -1000.0     -1000.0     -1000.0    
   2  -1000.0       36.79       36.78       36.76       36.72       36.68       36.63       36.58       36.53       36.50    
        36.49       36.49       36.51       36.55       36.58       36.62       36.65       36.68       36.69     -1000.0    
   3  -1000.0       36.79       36.78       36.75       36.71       36.67       36.61       36.56       36.51       36.47    
        36.45       36.46       36.48       36.53       36.57       36.61       36.65       36.67       36.68     -1000.0    
   4  -1000.0       36.79       36.77       36.74       36.70       36.65       36.59       36.52       36.45       36.40    
        36.37       36.39       36.43       36.48       36.54       36.59       36.63       36.66       36.68     -1000.0    
   5  -1000.0       36.78       36.76       36.73       36.69       36.62       36.55       36.46       36.36       36.28    
        36.24       36.27       36.34       36.42       36.50       36.57       36.62       36.65       36.67     -1000.0    
   6  -1000.0       36.77       36.76       36.72       36.67       36.60       36.50       36.39       36.25       36.10    
        36.01       36.09       36.23       36.35       36.46       36.54       36.60       36.64       36.66     -1000.0    
   7  -1000.0       36.77       36.75       36.71       36.66       36.58       36.47       36.32       36.12       35.86    
        35.61       35.85       36.10       36.29       36.42       36.52       36.59       36.63       36.65     -1000.0    
   8  -1000.0       36.77       36.75       36.71       36.65       36.57       36.45       36.29       36.04       35.62    
        34.90       35.61       36.02       36.25       36.40       36.51       36.58       36.62       36.65     -1000.0    
   9  -1000.0       36.77       36.75       36.71       36.66       36.58       36.47       36.32       36.12       35.86    
        35.61       35.85       36.10       36.29       36.42       36.52       36.59       36.63       36.65     -1000.0    
  10  -1000.0       36.77       36.76       36.72       36.67       36.60       36.50       36.39       36.25       36.10    
        36.01       36.09       36.23       36.35       36.46       36.54       36.60       36.64       36.66     -1000.0    
  11  -1000.0       36.78       36.76       36.73       36.69       36.62       36.55       36.46       36.36       36.28    
        36.24       36.27       36.34       36.42       36.50       36.57       36.62       36.65       36.67     -1000.0    
  12  -1000.0       36.79       36.77       36.74       36.70       36.65       36.59       36.52       36.45       36.40    
        36.37       36.39       36.43       36.48       36.54       36.59       36.63       36.66       36.68     -1000.0    
  13  -1000.0       36.79       36.78       36.75       36.71       36.67       36.61       36.56       36.51       36.47    
        36.45       36.46       36.48       36.53       36.57       36.61       36.65       36.67       36.68     -1000.0    
  14  -1000.0       36.79       36.78       36.76       36.72       36.68       36.63       36.58       36.53       36.50    
        36.49       36.49       36.51       36.55       36.58       36.62       36.65       36.68       36.69     -1000.0    
  15  -1000.0     -1000.0     -1000.0     -1000.0     -1000.0     -1000.0     -1000.0     -1000.0     -1000.0     -1000.0    
      -1000.0     -1000.0     -1000.0     -1000.0     -1000.0     -1000.0     -1000.0     -1000.0     -1000.0     -1000.0    

 HEAD WILL BE SAVED ON UNIT   31 AT END OF TIME STEP   12, STRESS PERIOD    2
1
  VOLUMETRIC BUDGET FOR ENTIRE MODEL AT END OF TIME STEP   12, STRESS PERIOD   2
  ------------------------------------------------------------------------------

     CUMULATIVE VOLUMES      L**3       RATES FOR THIS TIME STEP      L**3/T
     ------------------                 ------------------------

           IN:                                      IN:
           ---                                      ---
             STORAGE =      364990.5000               STORAGE =         999.9747
       CONSTANT HEAD =           0.0000         CONSTANT HEAD =           0.0000
               WELLS =           0.0000                 WELLS =           0.0000

            TOTAL IN =      364990.5000              TOTAL IN =         999.9747

          OUT:                                     OUT:
          ----                                     ----
             STORAGE =           0.0000               STORAGE =           0.0000
       CONSTANT HEAD =           0.0000         CONSTANT HEAD =           0.0000
               WELLS =      364999.9688                 WELLS =        1000.0000

           TOTAL OUT =      364999.9688             TOTAL OUT =        1000.0000

            IN - OUT =          -9.4688              IN - OUT =      -2.5330E-02

 PERCENT DISCREPANCY =          -0.00     PERCENT DISCREPANCY =          -0.00






         TIME SUMMARY AT END OF TIME STEP   12 IN STRESS PERIOD    2
                    SECONDS     MINUTES      HOURS       DAYS        YEARS
                    -----------------------------------------------------------
   TIME STEP LENGTH 2.62800E+06  43800.      730.00      30.417     8.32763E-02
 STRESS PERIOD TIME 3.15360E+07 5.25600E+05  8760.0      365.00     0.99932    
         TOTAL TIME 6.30720E+07 1.05120E+06  17520.      730.00      1.9986    
1
1
                            STRESS PERIOD NO.    3, LENGTH =   365.0000    
                            -----------------------------------------------

                              NUMBER OF TIME STEPS =    12

                               MULTIPLIER FOR DELT =     1.000

                            INITIAL TIME STEP SIZE =   30.41667    

 WELL NO.  LAYER   ROW   COL   STRESS RATE         
 --------------------------------------------------
      1      1      8     11      -1500.    
      2      1      6     16      -800.0    

      2 WELLS
 
 SOLVING FOR HEAD 

 NO OUTPUT CONTROL FOR STRESS PERIOD    3   TIME STEP    1
 
 SOLVING FOR HEAD 

 NO OUTPUT CONTROL FOR STRESS PERIOD    3   TIME STEP    2
 
 SOLVING FOR HEAD 

 OUTPUT CONTROL FOR STRESS PERIOD    3   TIME STEP    3
    SAVE HEAD FOR ALL LAYERS
    SAVE BUDGET

 HEAD WILL BE SAVED ON UNIT   31 AT END OF TIME STEP    3, STRESS PERIOD    3
 
 SOLVING FOR HEAD 

 NO OUTPUT CONTROL FOR STRESS PERIOD    3   TIME STEP    4
 
 SOLVING FOR HEAD 

 NO OUTPUT CONTROL FOR STRESS PERIOD    3   TIME STEP    5
 
 SOLVING FOR HEAD 

 OUTPUT CONTROL FOR STRESS PERIOD    3   TIME STEP    6
    SAVE HEAD FOR ALL LAYERS
    SAVE BUDGET

 HEAD WILL BE SAVED ON UNIT   31 AT END OF TIME STEP    6, STRESS PERIOD    3
 
 SOLVING FOR HEAD 

 NO OUTPUT CONTROL FOR STRESS PERIOD    3   TIME STEP    7
 
 SOLVING FOR HEAD 

 NO OUTPUT CONTROL FOR STRESS PERIOD    3   TIME STEP    8
 
 SOLVING FOR HEAD 

 OUTPUT CONTROL FOR STRESS PERIOD    3   TIME STEP    9
    SAVE HEAD FOR ALL LAYERS
    SAVE BUDGET

 HEAD WILL BE SAVED ON UNIT   31 AT END OF TIME STEP    9, STRESS PERIOD    3
 
 SOLVING FOR HEAD 

 NO OUTPUT CONTROL FOR STRESS PERIOD    3   TIME STEP   10
 
 SOLVING FOR HEAD 

 NO OUTPUT CONTROL FOR STRESS PERIOD    3   TIME STEP   11
 
 SOLVING FOR HEAD 

 OUTPUT CONTROL FOR STRESS PERIOD    3   TIME STEP   12
    SAVE HEAD FOR ALL LAYERS
    SAVE BUDGET
    PRINT BUDGET

 HEAD WILL BE SAVED ON UNIT   31 AT END OF TIME STEP   12, STRESS PERIOD    3
1
  VOLUMETRIC BUDGET FOR ENTIRE MODEL AT END OF TIME STEP   12, STRESS PERIOD   3
  ------------------------------------------------------------------------------

     CUMULATIVE VOLUMES      L**3       RATES FOR THIS TIME STEP      L**3/T
     ------------------                 ------------------------

           IN:                                      IN:
           ---                                      ---
             STORAGE =     1204481.3750               STORAGE =        2299.9758
       CONSTANT HEAD =           0.0000         CONSTANT HEAD =           0.0000
               WELLS =           0.0000                 WELLS =           0.0000

            TOTAL IN =     1204481.3750              TOTAL IN =        2299.9758

          OUT:                                     OUT:
          ----                                     ----
             STORAGE =           0.0000               STORAGE =           0.0000
       CONSTANT HEAD =           0.0000         CONSTANT HEAD =           0.0000
               WELLS =     1204499.8750                 WELLS =        2300.0000

           TOTAL OUT =     1204499.8750             TOTAL OUT =        2300.0000

            IN - OUT =         -18.5000              IN - OUT =      -2.4170E-02

 PERCENT DISCREPANCY =          -0.00     PERCENT DISCREPANCY =          -0.00






         TIME SUMMARY AT END OF TIME STEP   12 IN STRESS PERIOD    3
                    SECONDS     MINUTES      HOURS       DAYS        YEARS
                    -----------------------------------------------------------
   TIME STEP LENGTH 2.62800E+06  43800.      730.00      30.417     8.32763E-02
 STRESS PERIOD TIME 3.15360E+07 5.25600E+05  8760.0      365.00     0.99932    
         TOTAL TIME 9.46080E+07 1.57680E+06  26280.      1095.0      2.9979    
1
1
                            STRESS PERIOD NO.    4, LENGTH =   365.0000    
                            -----------------------------------------------

                              NUMBER OF TIME STEPS =     4

                               MULTIPLIER FOR DELT =     1.000

                            INITIAL TIME STEP SIZE =   91.25000    

 WELL NO.  LAYER   ROW   COL   STRESS RATE         
 --------------------------------------------------
      1      1      8     11      -2000.    
      2      1      6     16      -1200.    

      2 WELLS
 
 SOLVING FOR HEAD 

 OUTPUT CONTROL FOR STRESS PERIOD    4   TIME STEP    1
    SAVE HEAD FOR ALL LAYERS
    SAVE BUDGET

 HEAD WILL BE SAVED ON UNIT   31 AT END OF TIME STEP    1, STRESS PERIOD    4
 
 SOLVING FOR HEAD 

 OUTPUT CONTROL FOR STRESS PERIOD    4   TIME STEP    2
    SAVE HEAD FOR ALL LAYERS
    SAVE BUDGET

 HEAD WILL BE SAVED ON UNIT   31 AT END OF TIME STEP    2, STRESS PERIOD    4
 
 SOLVING FOR HEAD 

 OUTPUT CONTROL FOR STRESS PERIOD    4   TIME STEP    3
    SAVE HEAD FOR ALL LAYERS
    SAVE BUDGET

 HEAD WILL BE SAVED ON UNIT   31 AT END OF TIME STEP    3, STRESS PERIOD    4
 
 SOLVING FOR HEAD 

 OUTPUT CONTROL FOR STRESS PERIOD    4   TIME STEP    4
    SAVE HEAD FOR ALL LAYERS
    SAVE BUDGET
    PRINT HEAD FOR ALL LAYERS
1
              HEAD IN LAYER   1 AT END OF TIME STEP   4 IN STRESS PERIOD    4
  ---------------------------------------------------------------------------

            1           2           3           4           5           6           7           8           9          10
           11          12          13          14          15          16          17          18          19          20
 ........................................................................................................................
   1  -1000.0     -1000.0     -1000.0     -1000.0     -1000.0     -1000.0     -1000.0     -1000.0     -1000.0     -1000.0    
      -1000.0     -1000.0     -1000.0     -1000.0     -1000.0     -1000.0     -1000.0     -1000.0     -1000.0     -1000.0    
   2  -1000.0       32.41       32.36       32.26       32.12       31.93       31.71       31.45       31.18       30.91    
        30.65       30.42       30.22       30.04       29.90       29.81       29.79       29.80       29.82     -1000.0    
   3  -1000.0       32.40       32.35       32.25       32.10       31.91       31.67       31.40       31.12       30.83    
        30.56       30.32       30.11       29.93       29.77       29.67       29.67       29.72       29.76     -1000.0    
   4  -1000.0       32.40       32.34       32.24       32.08       31.87       31.61       31.31       30.98       30.66    
        30.36       30.12       29.92       29.71       29.49       29.34       29.44       29.58       29.66     -1000.0    
   5  -1000.0       32.39       32.33       32.22       32.05       31.82       31.53       31.18       30.78       30.38    
        30.03       29.81       29.64       29.42       29.07       28.66       29.07       29.40       29.57     -1000.0    
   6  -1000.0       32.38       32.33       32.21       32.02       31.77       31.44       31.03       30.52       29.96    
        29.47       29.38       29.34       29.16       28.59       26.55       28.67       29.32       29.55     -1000.0    
   7  -1000.0       32.38       32.32       32.20       32.01       31.74       31.38       30.89       30.24       29.36    
        28.38       28.79       29.12       29.18       29.01       28.69       29.17       29.52       29.70     -1000.0    
   8  -1000.0       32.39       32.33       32.21       32.01       31.74       31.36       30.84       30.07       28.73    
        24.54       28.18       29.06       29.37       29.44       29.45       29.64       29.83       29.94     -1000.0    
   9  -1000.0       32.41       32.35       32.23       32.04       31.78       31.43       30.96       30.32       29.49    
        28.57       29.04       29.47       29.71       29.84       29.92       30.04       30.14       30.21     -1000.0    
  10  -1000.0       32.43       32.37       32.26       32.09       31.85       31.54       31.15       30.69       30.18    
        29.78       29.81       29.96       30.10       30.20       30.28       30.35       30.42       30.46     -1000.0    
  11  -1000.0       32.45       32.40       32.30       32.14       31.93       31.67       31.36       31.01       30.68    
        30.43       30.36       30.38       30.44       30.50       30.56       30.61       30.65       30.67     -1000.0    
  12  -1000.0       32.47       32.42       32.33       32.19       32.00       31.78       31.53       31.26       31.01    
        30.82       30.72       30.70       30.71       30.73       30.77       30.80       30.83       30.84     -1000.0    
  13  -1000.0       32.49       32.45       32.36       32.23       32.06       31.86       31.64       31.42       31.22    
        31.06       30.95       30.90       30.88       30.89       30.91       30.93       30.95       30.96     -1000.0    
  14  -1000.0       32.50       32.46       32.37       32.25       32.09       31.90       31.70       31.50       31.32    
        31.17       31.06       31.00       30.97       30.97       30.98       31.00       31.01       31.02     -1000.0    
  15  -1000.0     -1000.0     -1000.0     -1000.0     -1000.0     -1000.0     -1000.0     -1000.0     -1000.0     -1000.0    
      -1000.0     -1000.0     -1000.0     -1000.0     -1000.0     -1000.0     -1000.0     -1000.0     -1000.0     -1000.0    
1
              HEAD IN LAYER   2 AT END OF TIME STEP   4 IN STRESS PERIOD    4
  ---------------------------------------------------------------------------

            1           2           3           4           5           6           7           8           9          10
           11          12          13          14          15          16          17          18          19          20
 ........................................................................................................................
   1  -1000.0     -1000.0     -1000.0     -1000.0     -1000.0     -1000.0     -1000.0     -1000.0     -1000.0     -1000.0    
      -1000.0     -1000.0     -1000.0     -1000.0     -1000.0     -1000.0     -1000.0     -1000.0     -1000.0     -1000.0    
   2  -1000.0       32.40       32.35       32.25       32.11       31.92       31.70       31.44       31.17       30.90    
        30.64       30.41       30.20       30.03       29.88       29.80       29.78       29.79       29.81     -1000.0    
   3  -1000.0       32.40       32.34       32.24       32.10       31.90       31.66       31.39       31.11       30.82    
        30.55       30.31       30.10       29.91       29.75       29.66       29.66       29.71       29.75     -1000.0    
   4  -1000.0       32.39       32.34       32.23       32.07       31.86       31.60       31.30       30.97       30.64    
        30.35       30.11       29.91       29.70       29.48       29.33       29.42       29.56       29.65     -1000.0    
   5  -1000.0       32.38       32.32       32.21       32.04       31.81       31.52       31.17       30.77       30.36    
        30.01       29.80       29.63       29.40       29.06       28.67       29.06       29.39       29.55     -1000.0    
   6  -1000.0       32.38       32.32       32.20       32.02       31.76       31.43       31.02       30.51       29.94    
        29.45       29.36       29.33       29.15       28.60       27.28       28.68       29.30       29.54     -1000.0    
   7  -1000.0       32.38       32.32       32.19       32.00       31.73       31.37       30.88       30.22       29.34    
        28.37       28.78       29.10       29.17       28.99       28.70       29.15       29.51       29.69     -1000.0    
   8  -1000.0       32.38       32.32       32.20       32.00       31.73       31.35       30.83       30.05       28.71    
        25.82       28.18       29.05       29.36       29.43       29.44       29.63       29.82       29.93     -1000.0    
   9  -1000.0       32.40       32.34       32.22       32.03       31.77       31.42       30.94       30.31       29.47    
        28.55       29.02       29.45       29.70       29.83       29.91       30.02       30.13       30.19     -1000.0    
  10  -1000.0       32.42       32.36       32.25       32.08       31.84       31.53       31.14       30.68       30.17    
        29.76       29.79       29.95       30.09       30.19       30.27       30.34       30.41       30.45     -1000.0    
  11  -1000.0       32.44       32.39       32.29       32.13       31.92       31.66       31.35       31.00       30.67    
        30.42       30.34       30.37       30.43       30.49       30.55       30.60       30.64       30.66     -1000.0    
  12  -1000.0       32.46       32.42       32.32       32.18       31.99       31.77       31.52       31.25       31.00    
        30.81       30.71       30.68       30.70       30.72       30.76       30.79       30.82       30.83     -1000.0    
  13  -1000.0       32.48       32.44       32.35       32.22       32.05       31.85       31.63       31.41       31.21    
        31.05       30.94       30.89       30.87       30.88       30.90       30.92       30.94       30.95     -1000.0    
  14  -1000.0       32.49       32.45       32.36       32.24       32.08       31.89       31.69       31.49       31.31    
        31.16       31.05       30.99       30.96       30.96       30.97       30.99       31.00       31.01     -1000.0    
  15  -1000.0     -1000.0     -1000.0     -1000.0     -1000.0     -1000.0     -1000.0     -1000.0     -1000.0     -1000.0    
      -1000.0     -1000.0     -1000.0     -1000.0     -1000.0     -1000.0     -1000.0     -1000.0     -1000.0     -1000.0    

 HEAD WILL BE SAVED ON UNIT   31 AT END OF TIME STEP    4, STRESS PERIOD    4
1
  VOLUMETRIC BUDGET FOR ENTIRE MODEL AT END OF TIME STEP    4, STRESS PERIOD   4
  ------------------------------------------------------------------------------

     CUMULATIVE VOLUMES      L**3       RATES FOR THIS TIME STEP      L**3/T
     ------------------                 ------------------------

           IN:                                      IN:
           ---                                      ---
             STORAGE =     2372482.2500               STORAGE =        3200.0020
       CONSTANT HEAD =           0.0000         CONSTANT HEAD =           0.0000
               WELLS =           0.0000                 WELLS =           0.0000

            TOTAL IN =     2372482.2500              TOTAL IN =        3200.0020

          OUT:                                     OUT:
          ----                                     ----
             STORAGE =           0.0000               STORAGE =           0.0000
       CONSTANT HEAD =           0.0000         CONSTANT HEAD =           0.0000
               WELLS =     2372500.0000                 WELLS =        3200.0000

           TOTAL OUT =     2372500.0000             TOTAL OUT =        3200.0000

            IN - OUT =         -17.7500              IN - OUT =       1.9531E-03

 PERCENT DISCREPANCY =          -0.00     PERCENT DISCREPANCY =           0.00






         TIME SUMMARY AT END OF TIME STEP    4 IN STRESS PERIOD    4
                    SECONDS     MINUTES      HOURS       DAYS        YEARS
                    -----------------------------------------------------------
   TIME STEP LENGTH 7.88400E+06 1.31400E+05  2190.0      91.250     0.24983    
 STRESS PERIOD TIME 3.15360E+07 5.25600E+05  8760.0      365.00     0.99932    
         TOTAL TIME 1.26144E+08 2.10240E+06  35040.      1460.0      3.9973    
1
1
                            STRESS PERIOD NO.    5, LENGTH =   365.0000    
                            -----------------------------------------------

                              NUMBER OF TIME STEPS =     1

                               MULTIPLIER FOR DELT =     1.000

                            INITIAL TIME STEP SIZE =   365.0000    

 WELL NO.  LAYER   ROW   COL   STRESS RATE         
 --------------------------------------------------
      1      1      8     11      -500.0    

      1 WELL 
 
 SOLVING FOR HEAD 

 CELL CONVERSIONS FOR ITER.=  2  LAYER=  1  STEP=  1  PERIOD=   5   (ROW,COL)
    DRY(  2,  2)   DRY(  2,  3)   DRY(  2,  4)   DRY(  2,  5)   DRY(  2,  6)   
    DRY(  2,  7)   DRY(  2,  8)   DRY(  2,  9)   DRY(  2, 10)   DRY(  2, 11)   
    DRY(  2, 12)   DRY(  2, 13)   DRY(  2, 14)   DRY(  2, 15)   DRY(  2, 16)   
    DRY(  2, 17)   DRY(  2, 18)   DRY(  2, 19)   DRY(  3,  2)   DRY(  3,  3)   
    DRY(  3,  4)   DRY(  3,  5)   DRY(  3,  6)   DRY(  3,  7)   DRY(  3,  8)   
    DRY(  3,  9)   DRY(  3, 10)   DRY(  3, 11)   DRY(  3, 12)   DRY(  3, 13)   
    DRY(  3, 14)   DRY(  3, 15)   DRY(  3, 16)   DRY(  3, 17)   DRY(  3, 18)   
    DRY(  3, 19)   DRY(  4,  2)   DRY(  4,  3)   DRY(  4,  4)   DRY(  4,  5)   
    DRY(  4,  6)   DRY(  4,  7)   DRY(  4,  8)   DRY(  4,  9)   DRY(  4, 10)   
    DRY(  4, 11)   DRY(  4, 12)   DRY(  4, 13)   DRY(  4, 14)   DRY(  4, 15)   
    DRY(  4, 16)   DRY(  4, 17)   DRY(  4, 18)   DRY(  4, 19)   DRY(  5,  2)   
    DRY(  5,  3)   DRY(  5,  4)   DRY(  5,  5)   DRY(  5,  6)   DRY(  5,  7)   
    DRY(  5,  8)   DRY(  5,  9)   DRY(  5, 10)   DRY(  5, 11)   DRY(  5, 12)   
    DRY(  5, 13)   DRY(  5, 14)   DRY(  5, 15)   DRY(  5, 16)   DRY(  5, 17)   
    DRY(  5, 18)   DRY(  5, 19)   DRY(  6,  2)   DRY(  6,  3)   DRY(  6,  4)   
    DRY(  6,  5)   DRY(  6,  6)   DRY(  6,  7)   DRY(  6,  8)   DRY(  6,  9)   
    DRY(  6, 10)   DRY(  6, 11)   DRY(  6, 12)   DRY(  6, 13)   DRY(  6, 14)   
    DRY(  6, 15)   DRY(  6, 16)   DRY(  6, 17)   DRY(  6, 18)   DRY(  6, 19)   
    DRY(  7,  2)   DRY(  7,  3)   DRY(  7,  4)   DRY(  7,  5)   DRY(  7,  6)   
    DRY(  7,  7)   DRY(  7,  8)   DRY(  7,  9)   DRY(  7, 10)   DRY(  7, 11)   
    DRY(  7, 12)   DRY(  7, 13)   DRY(  7, 14)   DRY(  7, 15)   DRY(  7, 16)   
    DRY(  7, 17)   DRY(  7, 18)   DRY(  7, 19)   DRY(  8,  2)   DRY(  8,  3)   
    DRY(  8,  4)   DRY(  8,  5)   DRY(  8,  6)   DRY(  8,  7)   DRY(  8,  8)   
    DRY(  8,  9)   DRY(  8, 10)   DRY(  8, 11)   DRY(  8, 12)   DRY(  8, 13)   
    DRY(  8, 14)   DRY(  8, 15)   DRY(  8, 16)   DRY(  8, 17)   DRY(  8, 18)   
    DRY(  8, 19)   DRY(  9,  2)   DRY(  9,  3)   DRY(  9,  4)   DRY(  9,  5)   
    DRY(  9,  6)   DRY(  9,  7)   DRY(  9,  8)   DRY(  9,  9)   DRY(  9, 10)   
    DRY(  9, 11)   DRY(  9, 12)   DRY(  9, 13)   DRY(  9, 14)   DRY(  9, 15)   
    DRY(  9, 16)   DRY(  9, 17)   DRY(  9, 18)   DRY(  9, 19)   DRY( 10,  2)   
    DRY( 10,  3)   DRY( 10,  4)   DRY( 10,  5)   DRY( 10,  6)   DRY( 10,  7)   
    DRY( 10,  8)   DRY( 10,  9)   DRY( 10, 10)   DRY( 10, 11)   DRY( 10, 12)   
    DRY( 10, 13)   DRY( 10, 14)   DRY( 10, 15)   DRY( 10, 16)   DRY( 10, 17)   
    DRY( 10, 18)   DRY( 10, 19)   DRY( 11,  2)   DRY( 11,  3)   DRY( 11,  4)   
    DRY( 11,  5)   DRY( 11,  6)   DRY( 11,  7)   DRY( 11,  8)   DRY( 11,  9)   
    DRY( 11, 10)   DRY( 11, 11)   DRY( 11, 12)   DRY( 11, 13)   DRY( 11, 14)   
    DRY( 11, 15)   DRY( 11, 16)   DRY( 11, 17)   DRY( 11, 18)   DRY( 11, 19)   
    DRY( 12,  2)   DRY( 12,  3)   DRY( 12,  4)   DRY( 12,  5)   DRY( 12,  6)   
    DRY( 12,  7)   DRY( 12,  8)   DRY( 12,  9)   DRY( 12, 10)   DRY( 12, 11)   
    DRY( 12, 12)   DRY( 12, 13)   DRY( 12, 14)   DRY( 12, 15)   DRY( 12, 16)   
    DRY( 12, 17)   DRY( 12, 18)   DRY( 12, 19)   DRY( 13,  2)   DRY( 13,  3)   
    DRY( 13,  4)   DRY( 13,  5)   DRY( 13,  6)   DRY( 13,  7)   DRY( 13,  8)   
    DRY( 13,  9)   DRY( 13, 10)   DRY( 13, 11)   DRY( 13, 12)   DRY( 13, 13)   
    DRY( 13, 14)   DRY( 13, 15)   DRY( 13, 16)   DRY( 13, 17)   DRY( 13, 18)   
    DRY( 13, 19)   DRY( 14,  2)   DRY( 14,  3)   DRY( 14,  4)   DRY( 14,  5)   
    DRY( 14,  6)   DRY( 14,  7)   DRY( 14,  8)   DRY( 14,  9)   DRY( 14, 10)   
    DRY( 14, 11)   DRY( 14, 12)   DRY( 14, 13)   DRY( 14, 14)   DRY( 14, 15)   
    DRY( 14, 16)   DRY( 14, 17)   DRY( 14, 18)   DRY( 14, 19)   

 CELL CONVERSIONS FOR ITER.=  2  LAYER=  2  STEP=  1  PERIOD=   5   (ROW,COL)
    DRY(  2,  2)   DRY(  2,  3)   DRY(  2,  4)   DRY(  2,  5)   DRY(  2,  6)   
    DRY(  2,  7)   DRY(  2,  8)   DRY(  2,  9)   DRY(  2, 10)   DRY(  2, 11)   
    DRY(  2, 12)   DRY(  2, 13)   DRY(  2, 14)   DRY(  2, 15)   DRY(  2, 16)   
    DRY(  2, 17)   DRY(  2, 18)   DRY(  2, 19)   DRY(  3,  2)   DRY(  3,  3)   
    DRY(  3,  4)   DRY(  3,  5)   DRY(  3,  6)   DRY(  3,  7)   DRY(  3,  8)   
    DRY(  3,  9)   DRY(  3, 10)   DRY(  3, 11)   DRY(  3, 12)   DRY(  3, 13)   
    DRY(  3, 14)   DRY(  3, 15)   DRY(  3, 16)   DRY(  3, 17)   DRY(  3, 18)   
    DRY(  3, 19)   DRY(  4,  2)   DRY(  4,  3)   DRY(  4,  4)   DRY(  4,  5)   
    DRY(  4,  6)   DRY(  4,  7)   DRY(  4,  8)   DRY(  4,  9)   DRY(  4, 10)   
    DRY(  4, 11)   DRY(  4, 12)   DRY(  4, 13)   DRY(  4, 14)   DRY(  4, 15)   
    DRY(  4, 16)   DRY(  4, 17)   DRY(  4, 18)   DRY(  4, 19)   DRY(  5,  2)   
    DRY(  5,  3)   DRY(  5,  4)   DRY(  5,  5)   DRY(  5,  6)   DRY(  5,  7)   
    DRY(  5,  8)   DRY(  5,  9)   DRY(  5, 10)   DRY(  5, 11)   DRY(  5, 12)   
    DRY(  5, 13)   DRY(  5, 14)   DRY(  5, 15)   DRY(  5, 16)   DRY(  5, 17)   
    DRY(  5, 18)   DRY(  5, 19)   DRY(  6,  2)   DRY(  6,  3)   DRY(  6,  4)   
    DRY(  6,  5)   DRY(  6,  6)   DRY(  6,  7)   DRY(  6,  8)   DRY(  6,  9)   
    DRY(  6, 10)   DRY(  6, 11)   DRY(  6, 12)   DRY(  6, 13)   DRY(  6, 14)   
    DRY(  6, 15)   DRY(  6, 16)   DRY(  6, 17)   DRY(  6, 18)   DRY(  6, 19)   
    DRY(  7,  2)   DRY(  7,  3)   DRY(  7,  4)   DRY(  7,  5)   DRY(  7,  6)   
    DRY(  7,  7)   DRY(  7,  8)   DRY(  7,  9)   DRY(  7, 10)   DRY(  7, 11)   
    DRY(  7, 12)   DRY(  7, 13)   DRY(  7, 14)   DRY(  7, 15)   DRY(  7, 16)   
    DRY(  7, 17)   DRY(  7, 18)   DRY(  7, 19)   DRY(  8,  2)   DRY(  8,  3)   
    DRY(  8,  4)   DRY(  8,  5)   DRY(  8,  6)   DRY(  8,  7)   DRY(  8,  8)   
    DRY(  8,  9)   DRY(  8, 10)   DRY(  8, 11)   DRY(  8, 12)   DRY(  8, 13)   
    DRY(  8, 14)   DRY(  8, 15)   DRY(  8, 16)   DRY(  8, 17)   DRY(  8, 18)   
    DRY(  8, 19)   DRY(  9,  2)   DRY(  9,  3)   DRY(  9,  4)   DRY(  9,  5)   
    DRY(  9,  6)   DRY(  9,  7)   DRY(  9,  8)   DRY(  9,  9)   DRY(  9, 10)   
    DRY(  9, 11)   DRY(  9, 12)   DRY(  9, 13)   DRY(  9, 14)   DRY(  9, 15)   
    DRY(  9, 16)   DRY(  9, 17)   DRY(  9, 18)   DRY(  9, 19)   DRY( 10,  2)   
    DRY( 10,  3)   DRY( 10,  4)   DRY( 10,  5)   DRY( 10,  6)   DRY( 10,  7)   
    DRY( 10,  8)   DRY( 10,  9)   DRY( 10, 10)   DRY( 10, 11)   DRY( 10, 12)   
    DRY( 10, 13)   DRY( 10, 14)   DRY( 10, 15)   DRY( 10, 16)   DRY( 10, 17)   
    DRY( 10, 18)   DRY( 10, 19)   DRY( 11,  2)   DRY( 11,  3)   DRY( 11,  4)   
    DRY( 11,  5)   DRY( 11,  6)   DRY( 11,  7)   DRY( 11,  8)   DRY( 11,  9)   
    DRY( 11, 10)   DRY( 11, 11)   DRY( 11, 12)   DRY( 11, 13)   DRY( 11, 14)   
    DRY( 11, 15)   DRY( 11, 16)   DRY( 11, 17)   DRY( 11, 18)   DRY( 11, 19)   
    DRY( 12,  2)   DRY( 12,  3)   DRY( 12,  4)   DRY( 12,  5)   DRY( 12,  6)   
    DRY( 12,  7)   DRY( 12,  8)   DRY( 12,  9)   DRY( 12, 10)   DRY( 12, 11)   
    DRY( 12, 12)   DRY( 12, 13)   DRY( 12, 14)   DRY( 12, 15)   DRY( 12, 16)   
    DRY( 12, 17)   DRY( 12, 18)   DRY( 12, 19)   DRY( 13,  2)   DRY( 13,  3)   
    DRY( 13,  4)   DRY( 13,  5)   DRY( 13,  6)   DRY( 13,  7)   DRY( 13,  8)   
    DRY( 13,  9)   DRY( 13, 10)   DRY( 13, 11)   DRY( 13, 12)   DRY( 13, 13)   
    DRY( 13, 14)   DRY( 13, 15)   DRY( 13, 16)   DRY( 13, 17)   DRY( 13, 18)   
    DRY( 13, 19)   DRY( 14,  2)   DRY( 14,  3)   DRY( 14,  4)   DRY( 14,  5)   
    DRY( 14,  6)   DRY( 14,  7)   DRY( 14,  8)   DRY( 14,  9)   DRY( 14, 10)   
    DRY( 14, 11)   DRY( 14, 12)   DRY( 14, 13)   DRY( 14, 14)   DRY( 14, 15)   
    DRY( 14, 16)   DRY( 14, 17)   DRY( 14, 18)   DRY( 14, 19)   

 OUTPUT CONTROL FOR STRESS PERIOD    5   TIME STEP    1
    SAVE HEAD FOR ALL LAYERS
    SAVE BUDGET
    PRINT HEAD FOR ALL LAYERS
    PRINT BUDGET
1
              HEAD IN LAYER   1 AT END OF TIME STEP   1 IN STRESS PERIOD    5
  ---------------------------------------------------------------------------

            1           2           3           4           5           6           7           8           9          10
           11          12          13          14          15          16          17          18          19          20
 ........................................................................................................................
   1  -1000.0     -1000.0     -1000.0     -1000.0     -1000.0     -1000.0     -1000.0     -1000.0     -1000.0     -1000.0    
      -1000.0     -1000.0     -1000.0     -1000.0     -1000.0     -1000.0     -1000.0     -1000.0     -1000.0     -1000.0    
   2  -1000.0     -1.0000E+30 -1.0000E+30 -1.0000E+30 -1.0000E+30 -1.0000E+30 -1.0000E+30 -1.0000E+30 -1.0000E+30 -1.0000E+30
      -1.0000E+30 -1.0000E+30 -1.0000E+30 -1.0000E+30 -1.0000E+30 -1.0000E+30 -1.0000E+30 -1.0000E+30 -1.0000E+30 -1000.0    
   3  -1000.0     -1.0000E+30 -1.0000E+30 -1.0000E+30 -1.0000E+30 -1.0000E+30 -1.0000E+30 -1.0000E+30 -1.0000E+30 -1.0000E+30
      -1.0000E+30 -1.0000E+30 -1.0000E+30 -1.0000E+30 -1.0000E+30 -1.0000E+30 -1.0000E+30 -1.0000E+30 -1.0000E+30 -1000.0    
   4  -1000.0     -1.0000E+30 -1.0000E+30 -1.0000E+30 -1.0000E+30 -1.0000E+30 -1.0000E+30 -1.0000E+30 -1.0000E+30 -1.0000E+30
      -1.0000E+30 -1.0000E+30 -1.0000E+30 -1.0000E+30 -1.0000E+30 -1.0000E+30 -1.0000E+30 -1.0000E+30 -1.0000E+30 -1000.0    
   5  -1000.0     -1.0000E+30 -1.0000E+30 -1.0000E+30 -1.0000E+30 -1.0000E+30 -1.0000E+30 -1.0000E+30 -1.0000E+30 -1.0000E+30
      -1.0000E+30 -1.0000E+30 -1.0000E+30 -1.0000E+30 -1.0000E+30 -1.0000E+30 -1.0000E+30 -1.0000E+30 -1.0000E+30 -1000.0    
   6  -1000.0     -1.0000E+30 -1.0000E+30 -1.0000E+30 -1.0000E+30 -1.0000E+30 -1.0000E+30 -1.0000E+30 -1.0000E+30 -1.0000E+30
      -1.0000E+30 -1.0000E+30 -1.0000E+30 -1.0000E+30 -1.0000E+30 -1.0000E+30 -1.0000E+30 -1.0000E+30 -1.0000E+30 -1000.0    
   7  -1000.0     -1.0000E+30 -1.0000E+30 -1.0000E+30 -1.0000E+30 -1.0000E+30 -1.0000E+30 -1.0000E+30 -1.0000E+30 -1.0000E+30
      -1.0000E+30 -1.0000E+30 -1.0000E+30 -1.0000E+30 -1.0000E+30 -1.0000E+30 -1.0000E+30 -1.0000E+30 -1.0000E+30 -1000.0    
   8  -1000.0     -1.0000E+30 -1.0000E+30 -1.0000E+30 -1.0000E+30 -1.0000E+30 -1.0000E+30 -1.0000E+30 -1.0000E+30 -1.0000E+30
      -1.0000E+30 -1.0000E+30 -1.0000E+30 -1.0000E+30 -1.0000E+30 -1.0000E+30 -1.0000E+30 -1.0000E+30 -1.0000E+30 -1000.0    
   9  -1000.0     -1.0000E+30 -1.0000E+30 -1.0000E+30 -1.0000E+30 -1.0000E+30 -1.0000E+30 -1.0000E+30 -1.0000E+30 -1.0000E+30
      -1.0000E+30 -1.0000E+30 -1.0000E+30 -1.0000E+30 -1.0000E+30 -1.0000E+30 -1.0000E+30 -1.0000E+30 -1.0000E+30 -1000.0    
  10  -1000.0     -1.0000E+30 -1.0000E+30 -1.0000E+30 -1.0000E+30 -1.0000E+30 -1.0000E+30 -1.0000E+30 -1.0000E+30 -1.0000E+30
      -1.0000E+30 -1.0000E+30 -1.0000E+30 -1.0000E+30 -1.0000E+30 -1.0000E+30 -1.0000E+30 -1.0000E+30 -1.0000E+30 -1000.0    
  11  -1000.0     -1.0000E+30 -1.0000E+30 -1.0000E+30 -1.0000E+30 -1.0000E+30 -1.0000E+30 -1.0000E+30 -1.0000E+30 -1.0000E+30
      -1.0000E+30 -1.0000E+30 -1.0000E+30 -1.0000E+30 -1.0000E+30 -1.0000E+30 -1.0000E+30 -1.0000E+30 -1.0000E+30 -1000.0    
  12  -1000.0     -1.0000E+30 -1.0000E+30 -1.0000E+30 -1.0000E+30 -1.0000E+30 -1.0000E+30 -1.0000E+30 -1.0000E+30 -1.0000E+30
      -1.0000E+30 -1.0000E+30 -1.0000E+30 -1.0000E+30 -1.0000E+30 -1.0000E+30 -1.0000E+30 -1.0000E+30 -1.0000E+30 -1000.0    
  13  -1000.0     -1.0000E+30 -1.0000E+30 -1.0000E+30 -1.0000E+30 -1.0000E+30 -1.0000E+30 -1.0000E+30 -1.0000E+30 -1.0000E+30
      -1.0000E+30 -1.0000E+30 -1.0000E+30 -1.0000E+30 -1.0000E+30 -1.0000E+30 -1.0000E+30 -1.0000E+30 -1.0000E+30 -1000.0    
  14  -1000.0     -1.0000E+30 -1.0000E+30 -1.0000E+30 -1.0000E+30 -1.0000E+30 -1.0000E+30 -1.0000E+30 -1.0000E+30 -1.0000E+30
      -1.0000E+30 -1.0000E+30 -1.0000E+30 -1.0000E+30 -1.0000E+30 -1.0000E+30 -1.0000E+30 -1.0000E+30 -1.0000E+30 -1000.0    
  15  -1000.0     -1000.0     -1000.0     -1000.0     -1000.0     -1000.0     -1000.0     -1000.0     -1000.0     -1000.0    
      -1000.0     -1000.0     -1000.0     -1000.0     -1000.0     -1000.0     -1000.0     -1000.0     -1000.0     -1000.0    
1
              HEAD IN LAYER   2 AT END OF TIME STEP   1 IN STRESS PERIOD    5
  ---------------------------------------------------------------------------

            1           2           3           4           5           6           7           8           9          10
           11          12          13          14          15          16          17          18          19          20
 ........................................................................................................................
   1  -1000.0     -1000.0     -1000.0     -1000.0     -1000.0     -1000.0     -1000.0     -1000.0     -1000.0     -1000.0    
      -1000.0     -1000.0     -1000.0     -1000.0     -1000.0     -1000.0     -1000.0     -1000.0     -1000.0     -1000.0    
   2  -1000.0     -1.0000E+30 -1.0000E+30 -1.0000E+30 -1.0000E+30 -1.0000E+30 -1.0000E+30 -1.0000E+30 -1.0000E+30 -1.0000E+30
      -1.0000E+30 -1.0000E+30 -1.0000E+30 -1.0000E+30 -1.0000E+30 -1.0000E+30 -1.0000E+30 -1.0000E+30 -1.0000E+30 -1000.0    
   3  -1000.0     -1.0000E+30 -1.0000E+30 -1.0000E+30 -1.0000E+30 -1.0000E+30 -1.0000E+30 -1.0000E+30 -1.0000E+30 -1.0000E+30
      -1.0000E+30 -1.0000E+30 -1.0000E+30 -1.0000E+30 -1.0000E+30 -1.0000E+30 -1.0000E+30 -1.0000E+30 -1.0000E+30 -1000.0    
   4  -1000.0     -1.0000E+30 -1.0000E+30 -1.0000E+30 -1.0000E+30 -1.0000E+30 -1.0000E+30 -1.0000E+30 -1.0000E+30 -1.0000E+30
      -1.0000E+30 -1.0000E+30 -1.0000E+30 -1.0000E+30 -1.0000E+30 -1.0000E+30 -1.0000E+30 -1.0000E+30 -1.0000E+30 -1000.0    
   5  -1000.0     -1.0000E+30 -1.0000E+30 -1.0000E+30 -1.0000E+30 -1.0000E+30 -1.0000E+30 -1.0000E+30 -1.0000E+30 -1.0000E+30
      -1.0000E+30 -1.0000E+30 -1.0000E+30 -1.0000E+30 -1.0000E+30 -1.0000E+30 -1.0000E+30 -1.0000E+30 -1.0000E+30 -1000.0    
   6  -1000.0     -1.0000E+30 -1.0000E+30 -1.0000E+30 -1.0000E+30 -1.0000E+30 -1.0000E+30 -1.0000E+30 -1.0000E+30 -1.0000E+30
      -1.0000E+30 -1.0000E+30 -1.0000E+30 -1.0000E+30 -1.0000E+30 -1.0000E+30 -1.0000E+30 -1.0000E+30 -1.0000E+30 -1000.0    
   7  -1000.0     -1.0000E+30 -1.0000E+30 -1.0000E+30 -1.0000E+30 -1.0000E+30 -1.0000E+30 -1.0000E+30 -1.0000E+30 -1.0000E+30
      -1.0000E+30 -1.0000E+30 -1.0000E+30 -1.0000E+30 -1.0000E+30 -1.0000E+30 -1.0000E+30 -1.0000E+30 -1.0000E+30 -1000.0    
   8  -1000.0     -1.0000E+30 -1.0000E+30 -1.0000E+30 -1.0000E+30 -1.0000E+30 -1.0000E+30 -1.0000E+30 -1.0000E+30 -1.0000E+30
      -1.0000E+30 -1.0000E+30 -1.0000E+30 -1.0000E+30 -1.0000E+30 -1.0000E+30 -1.0000E+30 -1.0000E+30 -1.0000E+30 -1000.0    
   9  -1000.0     -1.0000E+30 -1.0000E+30 -1.0000E+30 -1.0000E+30 -1.0000E+30 -1.0000E+30 -1.0000E+30 -1.0000E+30 -1.0000E+30
      -1.0000E+30 -1.0000E+30 -1.0000E+30 -1.0000E+30 -1.0000E+30 -1.0000E+30 -1.0000E+30 -1.0000E+30 -1.0000E+30 -1000.0    
  10  -1000.0     -1.0000E+30 -1.0000E+30 -1.0000E+30 -1.0000E+30 -1.0000E+30 -1.0000E+30 -1.0000E+30 -1.0000E+30 -1.0000E+30
      -1.0000E+30 -1.0000E+30 -1.0000E+30 -1.0000E+30 -1.0000E+30 -1.0000E+30 -1.0000E+30 -1.0000E+30 -1.0000E+30 -1000.0    
  11  -1000.0     -1.0000E+30 -1.0000E+30 -1.0000E+30 -1.0000E+30 -1.0000E+30 -1.0000E+30 -1.0000E+30 -1.0000E+30 -1.0000E+30
      -1.0000E+30 -1.0000E+30 -1.0000E+30 -1.0000E+30 -1.0000E+30 -1.0000E+30 -1.0000E+30 -1.0000E+30 -1.0000E+30 -1000.0    
  12  -1000.0     -1.0000E+30 -1.0000E+30 -1.0000E+30 -1.0000E+30 -1.0000E+30 -1.0000E+30 -1.0000E+30 -1.0000E+30 -1.0000E+30
      -1.0000E+30 -1.0000E+30 -1.0000E+30 -1.0000E+30 -1.0000E+30 -1.0000E+30 -1.0000E+30 -1.0000E+30 -1.0000E+30 -1000.0    
  13  -1000.0     -1.0000E+30 -1.0000E+30 -1.0000E+30 -1.0000E+30 -1.0000E+30 -1.0000E+30 -1.0000E+30 -1.0000E+30 -1.0000E+30
      -1.0000E+30 -1.0000E+30 -1.0000E+30 -1.0000E+30 -1.0000E+30 -1.0000E+30 -1.0000E+30 -1.0000E+30 -1.0000E+30 -1000.0    
  14  -1000.0     -1.0000E+30 -1.0000E+30 -1.0000E+30 -1.0000E+30 -1.0000E+30 -1.0000E+30 -1.0000E+30 -1.0000E+30 -1.0000E+30
      -1.0000E+30 -1.0000E+30 -1.0000E+30 -1.0000E+30 -1.0000E+30 -1.0000E+30 -1.0000E+30 -1.0000E+30 -1.0000E+30 -1000.0    
  15  -1000.0     -1000.0     -1000.0     -1000.0     -1000.0     -1000.0     -1000.0     -1000.0     -1000.0     -1000.0    
      -1000.0     -1000.0     -1000.0     -1000.0     -1000.0     -1000.0     -1000.0     -1000.0     -1000.0     -1000.0    

 HEAD WILL BE SAVED ON UNIT   31 AT END OF TIME STEP    1, STRESS PERIOD    5
1
  VOLUMETRIC BUDGET FOR ENTIRE MODEL AT END OF TIME STEP    1, STRESS PERIOD   5
  ------------------------------------------------------------------------------

     CUMULATIVE VOLUMES      L**3       RATES FOR THIS TIME STEP      L**3/T
     ------------------                 ------------------------

           IN:                                      IN:
           ---                                      ---
             STORAGE =     2372482.2500               STORAGE =           0.0000
       CONSTANT HEAD =           0.0000         CONSTANT HEAD =           0.0000
               WELLS =           0.0000                 WELLS =           0.0000

            TOTAL IN =     2372482.2500              TOTAL IN =           0.0000

          OUT:                                     OUT:
          ----                                     ----
             STORAGE =           0.0000               STORAGE =           0.0000
       CONSTANT HEAD =           0.0000         CONSTANT HEAD =           0.0000
               WELLS =     2372500.0000                 WELLS =           0.0000

           TOTAL OUT =     2372500.0000             TOTAL OUT =           0.0000

            IN - OUT =         -17.7500              IN - OUT =           0.0000

 PERCENT DISCREPANCY =          -0.00     PERCENT DISCREPANCY =           0.00






         TIME SUMMARY AT END OF TIME STEP    1 IN STRESS PERIOD    5
                    SECONDS     MINUTES      HOURS       DAYS        YEARS
                    -----------------------------------------------------------
   TIME STEP LENGTH 3.15360E+07 5.25600E+05  8760.0      365.00     0.99932    
 STRESS PERIOD TIME 3.15360E+07 5.25600E+05  8760.0      365.00     0.99932    
         TOTAL TIME 1.57680E+08 2.62800E+06  43800.      1825.0      4.9966    
1

 Run end date and time (yyyy/mm/dd hh:mm:ss): 2025/08/07 23:15:19
 Elapsed run time:  0.016 Seconds

