                                  MODFLOW-2005     
      U.S. GEOLOGICAL SURVEY MODULAR FINITE-DIFFERENCE GROUND-WATER FLOW MODEL
                            VERSION 1.12.00 2/3/2017

 LIST FILE: modeltime_demo.list
                         UNIT    2

 OPENING modeltime_demo.dis
 FILE TYPE:DIS   UNIT   11   STATUS:OLD    
 FORMAT:FORMATTED              ACCESS:SEQUENTIAL          

 OPENING modeltime_demo.bas
 FILE TYPE:BAS6   UNIT   13   STATUS:OLD    
 FORMAT:FORMATTED              ACCESS:SEQUENTIAL          

 OPENING modeltime_demo.lpf
 FILE TYPE:LPF   UNIT   15   STATUS:OLD    
 FORMAT:FORMATTED              ACCESS:SEQUENTIAL          

 OPENING modeltime_demo.chd
 FILE TYPE:CHD   UNIT   24   STATUS:OLD    
 FORMAT:FORMATTED              ACCESS:SEQUENTIAL          

 OPENING modeltime_demo.wel
 FILE TYPE:WEL   UNIT   20   STATUS:OLD    
 FORMAT:FORMATTED              ACCESS:SEQUENTIAL          

 OPENING modeltime_demo.oc
 FILE TYPE:OC   UNIT   14   STATUS:OLD    
 FORMAT:FORMATTED              ACCESS:SEQUENTIAL          

 OPENING modeltime_demo.pcg
 FILE TYPE:PCG   UNIT   27   STATUS:OLD    
 FORMAT:FORMATTED              ACCESS:SEQUENTIAL          

 OPENING modeltime_demo.hds
 FILE TYPE:DATA(BINARY)   UNIT   51   STATUS:REPLACE
 FORMAT:UNFORMATTED            ACCESS:STREAM              

 BAS -- BASIC PACKAGE, VERSION 7, 5/2/2005 INPUT READ FROM UNIT   13
 
 MODFLOW was compiled using mixed precision
 Precision of REAL variables:           6
 Precision of DOUBLE PRECISION variables:          15

 DISCRETIZATION INPUT DATA READ FROM UNIT   11
 # DIS package for MODFLOW-2005 generated by Flopy 3.9.3
    1 LAYERS        10 ROWS        10 COLUMNS
   12 STRESS PERIOD(S) IN SIMULATION
 MODEL TIME UNIT IS DAYS
 MODEL LENGTH UNIT IS METERS
  Confining bed flag for each layer:
   0

                     DELR =   100.000    

                     DELC =   100.000    

 TOP ELEVATION OF LAYER 1 =   50.0000    

   MODEL LAYER BOTTOM EL. =   0.00000     FOR LAYER   1


 STRESS PERIOD     LENGTH       TIME STEPS     MULTIPLIER FOR DELT    SS FLAG
 ----------------------------------------------------------------------------
        1         31.00000          5                    1.000         TR
        2         28.00000          4                    1.000         TR
        3         31.00000          5                    1.000         TR
        4         30.00000          5                    1.000         TR
        5         31.00000          5                    1.000         TR
        6         30.00000          5                    1.000         TR
        7         31.00000          5                    1.000         TR
        8         31.00000          5                    1.000         TR
        9         30.00000          5                    1.000         TR
       10         31.00000          5                    1.000         TR
       11         30.00000          5                    1.000         TR
       12         31.00000          5                    1.000         TR

 TRANSIENT SIMULATION



 
 # BAS6 package for MODFLOW-2005 generated by Flopy 3.9.3                        
 THE FREE FORMAT OPTION HAS BEEN SELECTED



                     BOUNDARY ARRAY FOR LAYER   1
 READING ON UNIT   13 WITH FORMAT: (10I10)             

 AQUIFER HEAD WILL BE SET TO  -999.99     AT ALL NO-FLOW NODES (IBOUND=0).



                       INITIAL HEAD FOR LAYER   1
 READING ON UNIT   13 WITH FORMAT: (10E15.6)           
 # OC package for MODFLOW-2005 generated by Flopy 3.9.3

 OUTPUT CONTROL IS SPECIFIED ONLY AT TIME STEPS FOR WHICH OUTPUT IS DESIRED
 COMPACT CELL-BY-CELL BUDGET FILES WILL BE WRITTEN
 AUXILIARY DATA WILL BE SAVED IN CELL-BY-CELL BUDGET FILES
 HEAD PRINT FORMAT CODE IS   0    DRAWDOWN PRINT FORMAT CODE IS   0
 HEADS WILL BE SAVED ON UNIT   51    DRAWDOWNS WILL BE SAVED ON UNIT    0

 LPF -- LAYER-PROPERTY FLOW PACKAGE, VERSION 7, 5/2/2005
         INPUT READ FROM UNIT   15
 # LPF package for MODFLOW-2005 generated by Flopy 3.9.3
 HEAD AT CELLS THAT CONVERT TO DRY= -1.00000E+30
 No named parameters

   LAYER FLAGS:
 LAYER       LAYTYP        LAYAVG         CHANI        LAYVKA        LAYWET
 ---------------------------------------------------------------------------
    1             0             0     1.000E+00             0             0

   INTERPRETATION OF LAYER FLAGS:
                        INTERBLOCK     HORIZONTAL    DATA IN
         LAYER TYPE   TRANSMISSIVITY   ANISOTROPY   ARRAY VKA   WETTABILITY
 LAYER      (LAYTYP)      (LAYAVG)       (CHANI)      (LAYVKA)      (LAYWET)
 ---------------------------------------------------------------------------
    1      CONFINED      HARMONIC     1.000E+00    VERTICAL K  NON-WETTABLE

 WETTING CAPABILITY IS NOT ACTIVE IN ANY LAYER

    HYD. COND. ALONG ROWS =   10.0000     FOR LAYER   1

      VERTICAL HYD. COND. =   1.00000     FOR LAYER   1

         SPECIFIC STORAGE =  1.000000E-05 FOR LAYER   1

 WEL -- WELL PACKAGE, VERSION 7, 5/2/2005 INPUT READ FROM UNIT   20
 # WEL package for MODFLOW-2005 generated by Flopy 3.9.3
 No named parameters
 MAXIMUM OF      1 ACTIVE WELLS AT ONE TIME


     0 Well parameters

 CHD -- TIME-VARIANT SPECIFIED-HEAD OPTION, VERSION 7, 5/2/2005
 INPUT READ FROM UNIT   24
 # CHD package for MODFLOW-2005 generated by Flopy 3.9.3
 No named parameters
 MAXIMUM OF     20 TIME-VARIANT SPECIFIED-HEAD CELLS AT ONE TIME


     0 TIME-VARIANT SPECIFIED-HEAD PARAMETERS

 PCG -- CONJUGATE-GRADIENT SOLUTION PACKAGE, VERSION 7, 5/2/2005
 # PCG package for MODFLOW-2005 generated by Flopy 3.9.3
 MAXIMUM OF     50 CALLS OF SOLUTION ROUTINE
 MAXIMUM OF     30 INTERNAL ITERATIONS PER CALL TO SOLUTION ROUTINE
 MATRIX PRECONDITIONING TYPE :    1



                                    SOLUTION BY THE CONJUGATE-GRADIENT METHOD
                                   -------------------------------------------
                    MAXIMUM NUMBER OF CALLS TO PCG ROUTINE =       50
                        MAXIMUM ITERATIONS PER CALL TO PCG =       30
                               MATRIX PRECONDITIONING TYPE =        1
        RELAXATION FACTOR (ONLY USED WITH PRECOND. TYPE 1) =    0.10000E+01
 PARAMETER OF POLYNOMIAL PRECOND. = 2 (2) OR IS CALCULATED :        0
                         HEAD CHANGE CRITERION FOR CLOSURE =    0.10000E-04
                     RESIDUAL CHANGE CRITERION FOR CLOSURE =    0.10000E-04
            PCG HEAD AND RESIDUAL CHANGE PRINTOUT INTERVAL =      999
     PRINTING FROM SOLVER IS LIMITED(1) OR SUPPRESSED (>1) =        3
                            STEADY-STATE DAMPING PARAMETER =    0.10000E+01
                               TRANSIENT DAMPING PARAMETER =    0.10000E+01
1
                            STRESS PERIOD NO.    1, LENGTH =   31.00000    
                            -----------------------------------------------

                              NUMBER OF TIME STEPS =     5

                               MULTIPLIER FOR DELT =     1.000

                            INITIAL TIME STEP SIZE =   6.200000    

 WELL NO.  LAYER   ROW   COL   STRESS RATE         
 --------------------------------------------------
      1      1      6      6      -50.00    

      1 WELL 

 CHD NO.   LAYER   ROW   COL    START HEAD        END HEAD         
 ------------------------------------------------------------------
      1      1      1      1       55.00           55.00    
      2      1      2      1       55.00           55.00    
      3      1      3      1       55.00           55.00    
      4      1      4      1       55.00           55.00    
      5      1      5      1       55.00           55.00    
      6      1      6      1       55.00           55.00    
      7      1      7      1       55.00           55.00    
      8      1      8      1       55.00           55.00    
      9      1      9      1       55.00           55.00    
     10      1     10      1       55.00           55.00    
     11      1      1     10       44.00           44.00    
     12      1      2     10       44.00           44.00    
     13      1      3     10       44.00           44.00    
     14      1      4     10       44.00           44.00    
     15      1      5     10       44.00           44.00    
     16      1      6     10       44.00           44.00    
     17      1      7     10       44.00           44.00    
     18      1      8     10       44.00           44.00    
     19      1      9     10       44.00           44.00    
     20      1     10     10       44.00           44.00    


     20 TIME-VARIANT SPECIFIED-HEAD CELLS
 
 SOLVING FOR HEAD 

 NO OUTPUT CONTROL FOR STRESS PERIOD    1   TIME STEP    1
 
 SOLVING FOR HEAD 

 NO OUTPUT CONTROL FOR STRESS PERIOD    1   TIME STEP    2
 
 SOLVING FOR HEAD 

 NO OUTPUT CONTROL FOR STRESS PERIOD    1   TIME STEP    3
 
 SOLVING FOR HEAD 

 NO OUTPUT CONTROL FOR STRESS PERIOD    1   TIME STEP    4
 
 SOLVING FOR HEAD 

 OUTPUT CONTROL FOR STRESS PERIOD    1   TIME STEP    5
    SAVE HEAD FOR ALL LAYERS
    SAVE BUDGET

 HEAD WILL BE SAVED ON UNIT   51 AT END OF TIME STEP    5, STRESS PERIOD    1
1
  VOLUMETRIC BUDGET FOR ENTIRE MODEL AT END OF TIME STEP    5, STRESS PERIOD   1
  ------------------------------------------------------------------------------

     CUMULATIVE VOLUMES      L**3       RATES FOR THIS TIME STEP      L**3/T
     ------------------                 ------------------------

           IN:                                      IN:
           ---                                      ---
             STORAGE =           0.0000               STORAGE =           0.0000
       CONSTANT HEAD =      191316.1094         CONSTANT HEAD =        6133.3335
               WELLS =           0.0000                 WELLS =           0.0000

            TOTAL IN =      191316.1094              TOTAL IN =        6133.3335

          OUT:                                     OUT:
          ----                                     ----
             STORAGE =        1794.9996               STORAGE =       9.2291E-06
       CONSTANT HEAD =      187971.1094         CONSTANT HEAD =        6083.3335
               WELLS =        1550.0000                 WELLS =          50.0000

           TOTAL OUT =      191316.1094             TOTAL OUT =        6133.3335

            IN - OUT =           0.0000              IN - OUT =           0.0000

 PERCENT DISCREPANCY =           0.00     PERCENT DISCREPANCY =           0.00






         TIME SUMMARY AT END OF TIME STEP    5 IN STRESS PERIOD    1
                    SECONDS     MINUTES      HOURS       DAYS        YEARS
                    -----------------------------------------------------------
   TIME STEP LENGTH 5.35680E+05  8928.0      148.80      6.2000     1.69747E-02
 STRESS PERIOD TIME 2.67840E+06  44640.      744.00      31.000     8.48734E-02
         TOTAL TIME 2.67840E+06  44640.      744.00      31.000     8.48734E-02
1
1
                            STRESS PERIOD NO.    2, LENGTH =   28.00000    
                            -----------------------------------------------

                              NUMBER OF TIME STEPS =     4

                               MULTIPLIER FOR DELT =     1.000

                            INITIAL TIME STEP SIZE =   7.000000    

 WELL NO.  LAYER   ROW   COL   STRESS RATE         
 --------------------------------------------------
      1      1      6      6      -50.00    

      1 WELL 

 CHD NO.   LAYER   ROW   COL    START HEAD        END HEAD         
 ------------------------------------------------------------------
      1      1      1      1       54.33           54.33    
      2      1      2      1       54.33           54.33    
      3      1      3      1       54.33           54.33    
      4      1      4      1       54.33           54.33    
      5      1      5      1       54.33           54.33    
      6      1      6      1       54.33           54.33    
      7      1      7      1       54.33           54.33    
      8      1      8      1       54.33           54.33    
      9      1      9      1       54.33           54.33    
     10      1     10      1       54.33           54.33    
     11      1      1     10       43.46           43.46    
     12      1      2     10       43.46           43.46    
     13      1      3     10       43.46           43.46    
     14      1      4     10       43.46           43.46    
     15      1      5     10       43.46           43.46    
     16      1      6     10       43.46           43.46    
     17      1      7     10       43.46           43.46    
     18      1      8     10       43.46           43.46    
     19      1      9     10       43.46           43.46    
     20      1     10     10       43.46           43.46    


     20 TIME-VARIANT SPECIFIED-HEAD CELLS
 
 SOLVING FOR HEAD 

 NO OUTPUT CONTROL FOR STRESS PERIOD    2   TIME STEP    1
 
 SOLVING FOR HEAD 

 NO OUTPUT CONTROL FOR STRESS PERIOD    2   TIME STEP    2
 
 SOLVING FOR HEAD 

 NO OUTPUT CONTROL FOR STRESS PERIOD    2   TIME STEP    3
 
 SOLVING FOR HEAD 

 OUTPUT CONTROL FOR STRESS PERIOD    2   TIME STEP    4
    SAVE HEAD FOR ALL LAYERS
    SAVE BUDGET

 HEAD WILL BE SAVED ON UNIT   51 AT END OF TIME STEP    4, STRESS PERIOD    2
1
  VOLUMETRIC BUDGET FOR ENTIRE MODEL AT END OF TIME STEP    4, STRESS PERIOD   2
  ------------------------------------------------------------------------------

     CUMULATIVE VOLUMES      L**3       RATES FOR THIS TIME STEP      L**3/T
     ------------------                 ------------------------

           IN:                                      IN:
           ---                                      ---
             STORAGE =         241.1544               STORAGE =       5.7220E-05
       CONSTANT HEAD =      360841.3750         CONSTANT HEAD =        6058.9043
               WELLS =           0.0000                 WELLS =           0.0000

            TOTAL IN =      361082.5312              TOTAL IN =        6058.9043

          OUT:                                     OUT:
          ----                                     ----
             STORAGE =        1794.9996               STORAGE =           0.0000
       CONSTANT HEAD =      356337.5625         CONSTANT HEAD =        6008.9043
               WELLS =        2950.0000                 WELLS =          50.0000

           TOTAL OUT =      361082.5625             TOTAL OUT =        6058.9043

            IN - OUT =      -3.1250E-02              IN - OUT =           0.0000

 PERCENT DISCREPANCY =          -0.00     PERCENT DISCREPANCY =           0.00






         TIME SUMMARY AT END OF TIME STEP    4 IN STRESS PERIOD    2
                    SECONDS     MINUTES      HOURS       DAYS        YEARS
                    -----------------------------------------------------------
   TIME STEP LENGTH 6.04800E+05  10080.      168.00      7.0000     1.91650E-02
 STRESS PERIOD TIME 2.41920E+06  40320.      672.00      28.000     7.66598E-02
         TOTAL TIME 5.09760E+06  84960.      1416.0      59.000     0.16153    
1
1
                            STRESS PERIOD NO.    3, LENGTH =   31.00000    
                            -----------------------------------------------

                              NUMBER OF TIME STEPS =     5

                               MULTIPLIER FOR DELT =     1.000

                            INITIAL TIME STEP SIZE =   6.200000    

 WELL NO.  LAYER   ROW   COL   STRESS RATE         
 --------------------------------------------------
      1      1      6      6      -50.00    

      1 WELL 

 CHD NO.   LAYER   ROW   COL    START HEAD        END HEAD         
 ------------------------------------------------------------------
      1      1      1      1       52.50           52.50    
      2      1      2      1       52.50           52.50    
      3      1      3      1       52.50           52.50    
      4      1      4      1       52.50           52.50    
      5      1      5      1       52.50           52.50    
      6      1      6      1       52.50           52.50    
      7      1      7      1       52.50           52.50    
      8      1      8      1       52.50           52.50    
      9      1      9      1       52.50           52.50    
     10      1     10      1       52.50           52.50    
     11      1      1     10       42.00           42.00    
     12      1      2     10       42.00           42.00    
     13      1      3     10       42.00           42.00    
     14      1      4     10       42.00           42.00    
     15      1      5     10       42.00           42.00    
     16      1      6     10       42.00           42.00    
     17      1      7     10       42.00           42.00    
     18      1      8     10       42.00           42.00    
     19      1      9     10       42.00           42.00    
     20      1     10     10       42.00           42.00    


     20 TIME-VARIANT SPECIFIED-HEAD CELLS
 
 SOLVING FOR HEAD 

 NO OUTPUT CONTROL FOR STRESS PERIOD    3   TIME STEP    1
 
 SOLVING FOR HEAD 

 NO OUTPUT CONTROL FOR STRESS PERIOD    3   TIME STEP    2
 
 SOLVING FOR HEAD 

 NO OUTPUT CONTROL FOR STRESS PERIOD    3   TIME STEP    3
 
 SOLVING FOR HEAD 

 NO OUTPUT CONTROL FOR STRESS PERIOD    3   TIME STEP    4
 
 SOLVING FOR HEAD 

 OUTPUT CONTROL FOR STRESS PERIOD    3   TIME STEP    5
    SAVE HEAD FOR ALL LAYERS
    SAVE BUDGET

 HEAD WILL BE SAVED ON UNIT   51 AT END OF TIME STEP    5, STRESS PERIOD    3
1
  VOLUMETRIC BUDGET FOR ENTIRE MODEL AT END OF TIME STEP    5, STRESS PERIOD   3
  ------------------------------------------------------------------------------

     CUMULATIVE VOLUMES      L**3       RATES FOR THIS TIME STEP      L**3/T
     ------------------                 ------------------------

           IN:                                      IN:
           ---                                      ---
             STORAGE =         899.9998               STORAGE =           0.0000
       CONSTANT HEAD =      542024.6875         CONSTANT HEAD =        5855.5557
               WELLS =           0.0000                 WELLS =           0.0000

            TOTAL IN =      542924.6875              TOTAL IN =        5855.5557

          OUT:                                     OUT:
          ----                                     ----
             STORAGE =        1794.9996               STORAGE =           0.0000
       CONSTANT HEAD =      536629.6875         CONSTANT HEAD =        5805.5557
               WELLS =        4500.0000                 WELLS =          50.0000

           TOTAL OUT =      542924.6875             TOTAL OUT =        5855.5557

            IN - OUT =           0.0000              IN - OUT =           0.0000

 PERCENT DISCREPANCY =           0.00     PERCENT DISCREPANCY =           0.00






         TIME SUMMARY AT END OF TIME STEP    5 IN STRESS PERIOD    3
                    SECONDS     MINUTES      HOURS       DAYS        YEARS
                    -----------------------------------------------------------
   TIME STEP LENGTH 5.35680E+05  8928.0      148.80      6.2000     1.69747E-02
 STRESS PERIOD TIME 2.67840E+06  44640.      744.00      31.000     8.48734E-02
         TOTAL TIME 7.77600E+06 1.29600E+05  2160.0      90.000     0.24641    
1
1
                            STRESS PERIOD NO.    4, LENGTH =   30.00000    
                            -----------------------------------------------

                              NUMBER OF TIME STEPS =     5

                               MULTIPLIER FOR DELT =     1.000

                            INITIAL TIME STEP SIZE =   6.000000    

 WELL NO.  LAYER   ROW   COL   STRESS RATE         
 --------------------------------------------------
      1      1      6      6      -50.00    

      1 WELL 

 CHD NO.   LAYER   ROW   COL    START HEAD        END HEAD         
 ------------------------------------------------------------------
      1      1      1      1       50.00           50.00    
      2      1      2      1       50.00           50.00    
      3      1      3      1       50.00           50.00    
      4      1      4      1       50.00           50.00    
      5      1      5      1       50.00           50.00    
      6      1      6      1       50.00           50.00    
      7      1      7      1       50.00           50.00    
      8      1      8      1       50.00           50.00    
      9      1      9      1       50.00           50.00    
     10      1     10      1       50.00           50.00    
     11      1      1     10       40.00           40.00    
     12      1      2     10       40.00           40.00    
     13      1      3     10       40.00           40.00    
     14      1      4     10       40.00           40.00    
     15      1      5     10       40.00           40.00    
     16      1      6     10       40.00           40.00    
     17      1      7     10       40.00           40.00    
     18      1      8     10       40.00           40.00    
     19      1      9     10       40.00           40.00    
     20      1     10     10       40.00           40.00    


     20 TIME-VARIANT SPECIFIED-HEAD CELLS
 
 SOLVING FOR HEAD 

 NO OUTPUT CONTROL FOR STRESS PERIOD    4   TIME STEP    1
 
 SOLVING FOR HEAD 

 NO OUTPUT CONTROL FOR STRESS PERIOD    4   TIME STEP    2
 
 SOLVING FOR HEAD 

 NO OUTPUT CONTROL FOR STRESS PERIOD    4   TIME STEP    3
 
 SOLVING FOR HEAD 

 NO OUTPUT CONTROL FOR STRESS PERIOD    4   TIME STEP    4
 
 SOLVING FOR HEAD 

 OUTPUT CONTROL FOR STRESS PERIOD    4   TIME STEP    5
    SAVE HEAD FOR ALL LAYERS
    SAVE BUDGET

 HEAD WILL BE SAVED ON UNIT   51 AT END OF TIME STEP    5, STRESS PERIOD    4
1
  VOLUMETRIC BUDGET FOR ENTIRE MODEL AT END OF TIME STEP    5, STRESS PERIOD   4
  ------------------------------------------------------------------------------

     CUMULATIVE VOLUMES      L**3       RATES FOR THIS TIME STEP      L**3/T
     ------------------                 ------------------------

           IN:                                      IN:
           ---                                      ---
             STORAGE =        1799.9998               STORAGE =       6.3578E-06
       CONSTANT HEAD =      708895.1250         CONSTANT HEAD =        5577.7778
               WELLS =           0.0000                 WELLS =           0.0000

            TOTAL IN =      710695.1250              TOTAL IN =        5577.7778

          OUT:                                     OUT:
          ----                                     ----
             STORAGE =        1794.9996               STORAGE =           0.0000
       CONSTANT HEAD =      702900.1250         CONSTANT HEAD =        5527.7778
               WELLS =        6000.0000                 WELLS =          50.0000

           TOTAL OUT =      710695.1250             TOTAL OUT =        5577.7778

            IN - OUT =           0.0000              IN - OUT =           0.0000

 PERCENT DISCREPANCY =           0.00     PERCENT DISCREPANCY =           0.00






         TIME SUMMARY AT END OF TIME STEP    5 IN STRESS PERIOD    4
                    SECONDS     MINUTES      HOURS       DAYS        YEARS
                    -----------------------------------------------------------
   TIME STEP LENGTH 5.18400E+05  8640.0      144.00      6.0000     1.64271E-02
 STRESS PERIOD TIME 2.59200E+06  43200.      720.00      30.000     8.21355E-02
         TOTAL TIME 1.03680E+07 1.72800E+05  2880.0      120.00     0.32854    
1
1
                            STRESS PERIOD NO.    5, LENGTH =   31.00000    
                            -----------------------------------------------

                              NUMBER OF TIME STEPS =     5

                               MULTIPLIER FOR DELT =     1.000

                            INITIAL TIME STEP SIZE =   6.200000    

 WELL NO.  LAYER   ROW   COL   STRESS RATE         
 --------------------------------------------------
      1      1      6      6      -200.0    

      1 WELL 

 CHD NO.   LAYER   ROW   COL    START HEAD        END HEAD         
 ------------------------------------------------------------------
      1      1      1      1       47.50           47.50    
      2      1      2      1       47.50           47.50    
      3      1      3      1       47.50           47.50    
      4      1      4      1       47.50           47.50    
      5      1      5      1       47.50           47.50    
      6      1      6      1       47.50           47.50    
      7      1      7      1       47.50           47.50    
      8      1      8      1       47.50           47.50    
      9      1      9      1       47.50           47.50    
     10      1     10      1       47.50           47.50    
     11      1      1     10       38.00           38.00    
     12      1      2     10       38.00           38.00    
     13      1      3     10       38.00           38.00    
     14      1      4     10       38.00           38.00    
     15      1      5     10       38.00           38.00    
     16      1      6     10       38.00           38.00    
     17      1      7     10       38.00           38.00    
     18      1      8     10       38.00           38.00    
     19      1      9     10       38.00           38.00    
     20      1     10     10       38.00           38.00    


     20 TIME-VARIANT SPECIFIED-HEAD CELLS
 
 SOLVING FOR HEAD 

 NO OUTPUT CONTROL FOR STRESS PERIOD    5   TIME STEP    1
 
 SOLVING FOR HEAD 

 NO OUTPUT CONTROL FOR STRESS PERIOD    5   TIME STEP    2
 
 SOLVING FOR HEAD 

 NO OUTPUT CONTROL FOR STRESS PERIOD    5   TIME STEP    3
 
 SOLVING FOR HEAD 

 NO OUTPUT CONTROL FOR STRESS PERIOD    5   TIME STEP    4
 
 SOLVING FOR HEAD 

 OUTPUT CONTROL FOR STRESS PERIOD    5   TIME STEP    5
    SAVE HEAD FOR ALL LAYERS
    SAVE BUDGET

 HEAD WILL BE SAVED ON UNIT   51 AT END OF TIME STEP    5, STRESS PERIOD    5
1
  VOLUMETRIC BUDGET FOR ENTIRE MODEL AT END OF TIME STEP    5, STRESS PERIOD   5
  ------------------------------------------------------------------------------

     CUMULATIVE VOLUMES      L**3       RATES FOR THIS TIME STEP      L**3/T
     ------------------                 ------------------------

           IN:                                      IN:
           ---                                      ---
             STORAGE =        2714.9995               STORAGE =           0.0000
       CONSTANT HEAD =      874791.5625         CONSTANT HEAD =        5366.6665
               WELLS =           0.0000                 WELLS =           0.0000

            TOTAL IN =      877506.5625              TOTAL IN =        5366.6665

          OUT:                                     OUT:
          ----                                     ----
             STORAGE =        1794.9996               STORAGE =           0.0000
       CONSTANT HEAD =      863511.5000         CONSTANT HEAD =        5166.6665
               WELLS =       12200.0000                 WELLS =         200.0000

           TOTAL OUT =      877506.5000             TOTAL OUT =        5366.6665

            IN - OUT =       6.2500E-02              IN - OUT =           0.0000

 PERCENT DISCREPANCY =           0.00     PERCENT DISCREPANCY =           0.00






         TIME SUMMARY AT END OF TIME STEP    5 IN STRESS PERIOD    5
                    SECONDS     MINUTES      HOURS       DAYS        YEARS
                    -----------------------------------------------------------
   TIME STEP LENGTH 5.35680E+05  8928.0      148.80      6.2000     1.69747E-02
 STRESS PERIOD TIME 2.67840E+06  44640.      744.00      31.000     8.48734E-02
         TOTAL TIME 1.30464E+07 2.17440E+05  3624.0      151.00     0.41342    
1
1
                            STRESS PERIOD NO.    6, LENGTH =   30.00000    
                            -----------------------------------------------

                              NUMBER OF TIME STEPS =     5

                               MULTIPLIER FOR DELT =     1.000

                            INITIAL TIME STEP SIZE =   6.000000    

 WELL NO.  LAYER   ROW   COL   STRESS RATE         
 --------------------------------------------------
      1      1      6      6      -200.0    

      1 WELL 

 CHD NO.   LAYER   ROW   COL    START HEAD        END HEAD         
 ------------------------------------------------------------------
      1      1      1      1       45.67           45.67    
      2      1      2      1       45.67           45.67    
      3      1      3      1       45.67           45.67    
      4      1      4      1       45.67           45.67    
      5      1      5      1       45.67           45.67    
      6      1      6      1       45.67           45.67    
      7      1      7      1       45.67           45.67    
      8      1      8      1       45.67           45.67    
      9      1      9      1       45.67           45.67    
     10      1     10      1       45.67           45.67    
     11      1      1     10       36.54           36.54    
     12      1      2     10       36.54           36.54    
     13      1      3     10       36.54           36.54    
     14      1      4     10       36.54           36.54    
     15      1      5     10       36.54           36.54    
     16      1      6     10       36.54           36.54    
     17      1      7     10       36.54           36.54    
     18      1      8     10       36.54           36.54    
     19      1      9     10       36.54           36.54    
     20      1     10     10       36.54           36.54    


     20 TIME-VARIANT SPECIFIED-HEAD CELLS
 
 SOLVING FOR HEAD 

 NO OUTPUT CONTROL FOR STRESS PERIOD    6   TIME STEP    1
 
 SOLVING FOR HEAD 

 NO OUTPUT CONTROL FOR STRESS PERIOD    6   TIME STEP    2
 
 SOLVING FOR HEAD 

 NO OUTPUT CONTROL FOR STRESS PERIOD    6   TIME STEP    3
 
 SOLVING FOR HEAD 

 NO OUTPUT CONTROL FOR STRESS PERIOD    6   TIME STEP    4
 
 SOLVING FOR HEAD 

 OUTPUT CONTROL FOR STRESS PERIOD    6   TIME STEP    5
    SAVE HEAD FOR ALL LAYERS
    SAVE BUDGET

 HEAD WILL BE SAVED ON UNIT   51 AT END OF TIME STEP    5, STRESS PERIOD    6
1
  VOLUMETRIC BUDGET FOR ENTIRE MODEL AT END OF TIME STEP    5, STRESS PERIOD   6
  ------------------------------------------------------------------------------

     CUMULATIVE VOLUMES      L**3       RATES FOR THIS TIME STEP      L**3/T
     ------------------                 ------------------------

           IN:                                      IN:
           ---                                      ---
             STORAGE =        3373.8447               STORAGE =       3.1789E-06
       CONSTANT HEAD =     1029352.1250         CONSTANT HEAD =        5163.3179
               WELLS =           0.0000                 WELLS =           0.0000

            TOTAL IN =     1032726.0000              TOTAL IN =        5163.3179

          OUT:                                     OUT:
          ----                                     ----
             STORAGE =        1794.9996               STORAGE =           0.0000
       CONSTANT HEAD =     1012730.8750         CONSTANT HEAD =        4963.3179
               WELLS =       18200.0000                 WELLS =         200.0000

           TOTAL OUT =     1032725.8750             TOTAL OUT =        5163.3179

            IN - OUT =           0.1250              IN - OUT =           0.0000

 PERCENT DISCREPANCY =           0.00     PERCENT DISCREPANCY =           0.00






         TIME SUMMARY AT END OF TIME STEP    5 IN STRESS PERIOD    6
                    SECONDS     MINUTES      HOURS       DAYS        YEARS
                    -----------------------------------------------------------
   TIME STEP LENGTH 5.18400E+05  8640.0      144.00      6.0000     1.64271E-02
 STRESS PERIOD TIME 2.59200E+06  43200.      720.00      30.000     8.21355E-02
         TOTAL TIME 1.56384E+07 2.60640E+05  4344.0      181.00     0.49555    
1
1
                            STRESS PERIOD NO.    7, LENGTH =   31.00000    
                            -----------------------------------------------

                              NUMBER OF TIME STEPS =     5

                               MULTIPLIER FOR DELT =     1.000

                            INITIAL TIME STEP SIZE =   6.200000    

 WELL NO.  LAYER   ROW   COL   STRESS RATE         
 --------------------------------------------------
      1      1      6      6      -200.0    

      1 WELL 

 CHD NO.   LAYER   ROW   COL    START HEAD        END HEAD         
 ------------------------------------------------------------------
      1      1      1      1       45.00           45.00    
      2      1      2      1       45.00           45.00    
      3      1      3      1       45.00           45.00    
      4      1      4      1       45.00           45.00    
      5      1      5      1       45.00           45.00    
      6      1      6      1       45.00           45.00    
      7      1      7      1       45.00           45.00    
      8      1      8      1       45.00           45.00    
      9      1      9      1       45.00           45.00    
     10      1     10      1       45.00           45.00    
     11      1      1     10       36.00           36.00    
     12      1      2     10       36.00           36.00    
     13      1      3     10       36.00           36.00    
     14      1      4     10       36.00           36.00    
     15      1      5     10       36.00           36.00    
     16      1      6     10       36.00           36.00    
     17      1      7     10       36.00           36.00    
     18      1      8     10       36.00           36.00    
     19      1      9     10       36.00           36.00    
     20      1     10     10       36.00           36.00    


     20 TIME-VARIANT SPECIFIED-HEAD CELLS
 
 SOLVING FOR HEAD 

 NO OUTPUT CONTROL FOR STRESS PERIOD    7   TIME STEP    1
 
 SOLVING FOR HEAD 

 NO OUTPUT CONTROL FOR STRESS PERIOD    7   TIME STEP    2
 
 SOLVING FOR HEAD 

 NO OUTPUT CONTROL FOR STRESS PERIOD    7   TIME STEP    3
 
 SOLVING FOR HEAD 

 NO OUTPUT CONTROL FOR STRESS PERIOD    7   TIME STEP    4
 
 SOLVING FOR HEAD 

 OUTPUT CONTROL FOR STRESS PERIOD    7   TIME STEP    5
    SAVE HEAD FOR ALL LAYERS
    SAVE BUDGET

 HEAD WILL BE SAVED ON UNIT   51 AT END OF TIME STEP    5, STRESS PERIOD    7
1
  VOLUMETRIC BUDGET FOR ENTIRE MODEL AT END OF TIME STEP    5, STRESS PERIOD   7
  ------------------------------------------------------------------------------

     CUMULATIVE VOLUMES      L**3       RATES FOR THIS TIME STEP      L**3/T
     ------------------                 ------------------------

           IN:                                      IN:
           ---                                      ---
             STORAGE =        3614.9993               STORAGE =           0.0000
       CONSTANT HEAD =     1186983.6250         CONSTANT HEAD =        5088.8887
               WELLS =           0.0000                 WELLS =           0.0000

            TOTAL IN =     1190598.6250              TOTAL IN =        5088.8887

          OUT:                                     OUT:
          ----                                     ----
             STORAGE =        1794.9996               STORAGE =           0.0000
       CONSTANT HEAD =     1164403.6250         CONSTANT HEAD =        4888.8887
               WELLS =       24400.0000                 WELLS =         200.0000

           TOTAL OUT =     1190598.6250             TOTAL OUT =        5088.8887

            IN - OUT =           0.0000              IN - OUT =           0.0000

 PERCENT DISCREPANCY =           0.00     PERCENT DISCREPANCY =           0.00






         TIME SUMMARY AT END OF TIME STEP    5 IN STRESS PERIOD    7
                    SECONDS     MINUTES      HOURS       DAYS        YEARS
                    -----------------------------------------------------------
   TIME STEP LENGTH 5.35680E+05  8928.0      148.80      6.2000     1.69747E-02
 STRESS PERIOD TIME 2.67840E+06  44640.      744.00      31.000     8.48734E-02
         TOTAL TIME 1.83168E+07 3.05280E+05  5088.0      212.00     0.58042    
1
1
                            STRESS PERIOD NO.    8, LENGTH =   31.00000    
                            -----------------------------------------------

                              NUMBER OF TIME STEPS =     5

                               MULTIPLIER FOR DELT =     1.000

                            INITIAL TIME STEP SIZE =   6.200000    

 WELL NO.  LAYER   ROW   COL   STRESS RATE         
 --------------------------------------------------
      1      1      6      6      -200.0    

      1 WELL 

 CHD NO.   LAYER   ROW   COL    START HEAD        END HEAD         
 ------------------------------------------------------------------
      1      1      1      1       45.67           45.67    
      2      1      2      1       45.67           45.67    
      3      1      3      1       45.67           45.67    
      4      1      4      1       45.67           45.67    
      5      1      5      1       45.67           45.67    
      6      1      6      1       45.67           45.67    
      7      1      7      1       45.67           45.67    
      8      1      8      1       45.67           45.67    
      9      1      9      1       45.67           45.67    
     10      1     10      1       45.67           45.67    
     11      1      1     10       36.54           36.54    
     12      1      2     10       36.54           36.54    
     13      1      3     10       36.54           36.54    
     14      1      4     10       36.54           36.54    
     15      1      5     10       36.54           36.54    
     16      1      6     10       36.54           36.54    
     17      1      7     10       36.54           36.54    
     18      1      8     10       36.54           36.54    
     19      1      9     10       36.54           36.54    
     20      1     10     10       36.54           36.54    


     20 TIME-VARIANT SPECIFIED-HEAD CELLS
 
 SOLVING FOR HEAD 

 NO OUTPUT CONTROL FOR STRESS PERIOD    8   TIME STEP    1
 
 SOLVING FOR HEAD 

 NO OUTPUT CONTROL FOR STRESS PERIOD    8   TIME STEP    2
 
 SOLVING FOR HEAD 

 NO OUTPUT CONTROL FOR STRESS PERIOD    8   TIME STEP    3
 
 SOLVING FOR HEAD 

 NO OUTPUT CONTROL FOR STRESS PERIOD    8   TIME STEP    4
 
 SOLVING FOR HEAD 

 OUTPUT CONTROL FOR STRESS PERIOD    8   TIME STEP    5
    SAVE HEAD FOR ALL LAYERS
    SAVE BUDGET

 HEAD WILL BE SAVED ON UNIT   51 AT END OF TIME STEP    5, STRESS PERIOD    8
1
  VOLUMETRIC BUDGET FOR ENTIRE MODEL AT END OF TIME STEP    5, STRESS PERIOD   8
  ------------------------------------------------------------------------------

     CUMULATIVE VOLUMES      L**3       RATES FOR THIS TIME STEP      L**3/T
     ------------------                 ------------------------

           IN:                                      IN:
           ---                                      ---
             STORAGE =        3614.9993               STORAGE =           0.0000
       CONSTANT HEAD =     1347170.6250         CONSTANT HEAD =        5163.3179
               WELLS =           0.0000                 WELLS =           0.0000

            TOTAL IN =     1350785.6250              TOTAL IN =        5163.3179

          OUT:                                     OUT:
          ----                                     ----
             STORAGE =        2036.1542               STORAGE =           0.0000
       CONSTANT HEAD =     1318149.3750         CONSTANT HEAD =        4963.3179
               WELLS =       30600.0000                 WELLS =         200.0000

           TOTAL OUT =     1350785.5000             TOTAL OUT =        5163.3179

            IN - OUT =           0.1250              IN - OUT =           0.0000

 PERCENT DISCREPANCY =           0.00     PERCENT DISCREPANCY =           0.00






         TIME SUMMARY AT END OF TIME STEP    5 IN STRESS PERIOD    8
                    SECONDS     MINUTES      HOURS       DAYS        YEARS
                    -----------------------------------------------------------
   TIME STEP LENGTH 5.35680E+05  8928.0      148.80      6.2000     1.69747E-02
 STRESS PERIOD TIME 2.67840E+06  44640.      744.00      31.000     8.48734E-02
         TOTAL TIME 2.09952E+07 3.49920E+05  5832.0      243.00     0.66530    
1
1
                            STRESS PERIOD NO.    9, LENGTH =   30.00000    
                            -----------------------------------------------

                              NUMBER OF TIME STEPS =     5

                               MULTIPLIER FOR DELT =     1.000

                            INITIAL TIME STEP SIZE =   6.000000    

 WELL NO.  LAYER   ROW   COL   STRESS RATE         
 --------------------------------------------------
      1      1      6      6      -200.0    

      1 WELL 

 CHD NO.   LAYER   ROW   COL    START HEAD        END HEAD         
 ------------------------------------------------------------------
      1      1      1      1       47.50           47.50    
      2      1      2      1       47.50           47.50    
      3      1      3      1       47.50           47.50    
      4      1      4      1       47.50           47.50    
      5      1      5      1       47.50           47.50    
      6      1      6      1       47.50           47.50    
      7      1      7      1       47.50           47.50    
      8      1      8      1       47.50           47.50    
      9      1      9      1       47.50           47.50    
     10      1     10      1       47.50           47.50    
     11      1      1     10       38.00           38.00    
     12      1      2     10       38.00           38.00    
     13      1      3     10       38.00           38.00    
     14      1      4     10       38.00           38.00    
     15      1      5     10       38.00           38.00    
     16      1      6     10       38.00           38.00    
     17      1      7     10       38.00           38.00    
     18      1      8     10       38.00           38.00    
     19      1      9     10       38.00           38.00    
     20      1     10     10       38.00           38.00    


     20 TIME-VARIANT SPECIFIED-HEAD CELLS
 
 SOLVING FOR HEAD 

 NO OUTPUT CONTROL FOR STRESS PERIOD    9   TIME STEP    1
 
 SOLVING FOR HEAD 

 NO OUTPUT CONTROL FOR STRESS PERIOD    9   TIME STEP    2
 
 SOLVING FOR HEAD 

 NO OUTPUT CONTROL FOR STRESS PERIOD    9   TIME STEP    3
 
 SOLVING FOR HEAD 

 NO OUTPUT CONTROL FOR STRESS PERIOD    9   TIME STEP    4
 
 SOLVING FOR HEAD 

 OUTPUT CONTROL FOR STRESS PERIOD    9   TIME STEP    5
    SAVE HEAD FOR ALL LAYERS
    SAVE BUDGET

 HEAD WILL BE SAVED ON UNIT   51 AT END OF TIME STEP    5, STRESS PERIOD    9
1
  VOLUMETRIC BUDGET FOR ENTIRE MODEL AT END OF TIME STEP    5, STRESS PERIOD   9
  ------------------------------------------------------------------------------

     CUMULATIVE VOLUMES      L**3       RATES FOR THIS TIME STEP      L**3/T
     ------------------                 ------------------------

           IN:                                      IN:
           ---                                      ---
             STORAGE =        3614.9993               STORAGE =           0.0000
       CONSTANT HEAD =     1508509.5000         CONSTANT HEAD =        5366.6665
               WELLS =           0.0000                 WELLS =           0.0000

            TOTAL IN =     1512124.5000              TOTAL IN =        5366.6665

          OUT:                                     OUT:
          ----                                     ----
             STORAGE =        2694.9998               STORAGE =           0.0000
       CONSTANT HEAD =     1472829.5000         CONSTANT HEAD =        5166.6665
               WELLS =       36600.0000                 WELLS =         200.0000

           TOTAL OUT =     1512124.5000             TOTAL OUT =        5366.6665

            IN - OUT =           0.0000              IN - OUT =           0.0000

 PERCENT DISCREPANCY =           0.00     PERCENT DISCREPANCY =           0.00






         TIME SUMMARY AT END OF TIME STEP    5 IN STRESS PERIOD    9
                    SECONDS     MINUTES      HOURS       DAYS        YEARS
                    -----------------------------------------------------------
   TIME STEP LENGTH 5.18400E+05  8640.0      144.00      6.0000     1.64271E-02
 STRESS PERIOD TIME 2.59200E+06  43200.      720.00      30.000     8.21355E-02
         TOTAL TIME 2.35872E+07 3.93120E+05  6552.0      273.00     0.74743    
1
1
                            STRESS PERIOD NO.   10, LENGTH =   31.00000    
                            -----------------------------------------------

                              NUMBER OF TIME STEPS =     5

                               MULTIPLIER FOR DELT =     1.000

                            INITIAL TIME STEP SIZE =   6.200000    

 WELL NO.  LAYER   ROW   COL   STRESS RATE         
 --------------------------------------------------
      1      1      6      6      -50.00    

      1 WELL 

 CHD NO.   LAYER   ROW   COL    START HEAD        END HEAD         
 ------------------------------------------------------------------
      1      1      1      1       50.00           50.00    
      2      1      2      1       50.00           50.00    
      3      1      3      1       50.00           50.00    
      4      1      4      1       50.00           50.00    
      5      1      5      1       50.00           50.00    
      6      1      6      1       50.00           50.00    
      7      1      7      1       50.00           50.00    
      8      1      8      1       50.00           50.00    
      9      1      9      1       50.00           50.00    
     10      1     10      1       50.00           50.00    
     11      1      1     10       40.00           40.00    
     12      1      2     10       40.00           40.00    
     13      1      3     10       40.00           40.00    
     14      1      4     10       40.00           40.00    
     15      1      5     10       40.00           40.00    
     16      1      6     10       40.00           40.00    
     17      1      7     10       40.00           40.00    
     18      1      8     10       40.00           40.00    
     19      1      9     10       40.00           40.00    
     20      1     10     10       40.00           40.00    


     20 TIME-VARIANT SPECIFIED-HEAD CELLS
 
 SOLVING FOR HEAD 

 NO OUTPUT CONTROL FOR STRESS PERIOD   10   TIME STEP    1
 
 SOLVING FOR HEAD 

 NO OUTPUT CONTROL FOR STRESS PERIOD   10   TIME STEP    2
 
 SOLVING FOR HEAD 

 NO OUTPUT CONTROL FOR STRESS PERIOD   10   TIME STEP    3
 
 SOLVING FOR HEAD 

 NO OUTPUT CONTROL FOR STRESS PERIOD   10   TIME STEP    4
 
 SOLVING FOR HEAD 

 OUTPUT CONTROL FOR STRESS PERIOD   10   TIME STEP    5
    SAVE HEAD FOR ALL LAYERS
    SAVE BUDGET

 HEAD WILL BE SAVED ON UNIT   51 AT END OF TIME STEP    5, STRESS PERIOD   10
1
  VOLUMETRIC BUDGET FOR ENTIRE MODEL AT END OF TIME STEP    5, STRESS PERIOD  10
  ------------------------------------------------------------------------------

     CUMULATIVE VOLUMES      L**3       RATES FOR THIS TIME STEP      L**3/T
     ------------------                 ------------------------

           IN:                                      IN:
           ---                                      ---
             STORAGE =        3614.9993               STORAGE =           0.0000
       CONSTANT HEAD =     1681890.7500         CONSTANT HEAD =        5577.7778
               WELLS =           0.0000                 WELLS =           0.0000

            TOTAL IN =     1685505.7500              TOTAL IN =        5577.7778

          OUT:                                     OUT:
          ----                                     ----
             STORAGE =        3609.9995               STORAGE =           0.0000
       CONSTANT HEAD =     1643745.8750         CONSTANT HEAD =        5527.7778
               WELLS =       38150.0000                 WELLS =          50.0000

           TOTAL OUT =     1685505.8750             TOTAL OUT =        5577.7778

            IN - OUT =          -0.1250              IN - OUT =           0.0000

 PERCENT DISCREPANCY =          -0.00     PERCENT DISCREPANCY =           0.00






         TIME SUMMARY AT END OF TIME STEP    5 IN STRESS PERIOD   10
                    SECONDS     MINUTES      HOURS       DAYS        YEARS
                    -----------------------------------------------------------
   TIME STEP LENGTH 5.35680E+05  8928.0      148.80      6.2000     1.69747E-02
 STRESS PERIOD TIME 2.67840E+06  44640.      744.00      31.000     8.48734E-02
         TOTAL TIME 2.62656E+07 4.37760E+05  7296.0      304.00     0.83231    
1
1
                            STRESS PERIOD NO.   11, LENGTH =   30.00000    
                            -----------------------------------------------

                              NUMBER OF TIME STEPS =     5

                               MULTIPLIER FOR DELT =     1.000

                            INITIAL TIME STEP SIZE =   6.000000    

 WELL NO.  LAYER   ROW   COL   STRESS RATE         
 --------------------------------------------------
      1      1      6      6      -50.00    

      1 WELL 

 CHD NO.   LAYER   ROW   COL    START HEAD        END HEAD         
 ------------------------------------------------------------------
      1      1      1      1       52.50           52.50    
      2      1      2      1       52.50           52.50    
      3      1      3      1       52.50           52.50    
      4      1      4      1       52.50           52.50    
      5      1      5      1       52.50           52.50    
      6      1      6      1       52.50           52.50    
      7      1      7      1       52.50           52.50    
      8      1      8      1       52.50           52.50    
      9      1      9      1       52.50           52.50    
     10      1     10      1       52.50           52.50    
     11      1      1     10       42.00           42.00    
     12      1      2     10       42.00           42.00    
     13      1      3     10       42.00           42.00    
     14      1      4     10       42.00           42.00    
     15      1      5     10       42.00           42.00    
     16      1      6     10       42.00           42.00    
     17      1      7     10       42.00           42.00    
     18      1      8     10       42.00           42.00    
     19      1      9     10       42.00           42.00    
     20      1     10     10       42.00           42.00    


     20 TIME-VARIANT SPECIFIED-HEAD CELLS
 
 SOLVING FOR HEAD 

 NO OUTPUT CONTROL FOR STRESS PERIOD   11   TIME STEP    1
 
 SOLVING FOR HEAD 

 NO OUTPUT CONTROL FOR STRESS PERIOD   11   TIME STEP    2
 
 SOLVING FOR HEAD 

 NO OUTPUT CONTROL FOR STRESS PERIOD   11   TIME STEP    3
 
 SOLVING FOR HEAD 

 NO OUTPUT CONTROL FOR STRESS PERIOD   11   TIME STEP    4
 
 SOLVING FOR HEAD 

 OUTPUT CONTROL FOR STRESS PERIOD   11   TIME STEP    5
    SAVE HEAD FOR ALL LAYERS
    SAVE BUDGET

 HEAD WILL BE SAVED ON UNIT   51 AT END OF TIME STEP    5, STRESS PERIOD   11
1
  VOLUMETRIC BUDGET FOR ENTIRE MODEL AT END OF TIME STEP    5, STRESS PERIOD  11
  ------------------------------------------------------------------------------

     CUMULATIVE VOLUMES      L**3       RATES FOR THIS TIME STEP      L**3/T
     ------------------                 ------------------------

           IN:                                      IN:
           ---                                      ---
             STORAGE =        3614.9993               STORAGE =           0.0000
       CONSTANT HEAD =     1858020.5000         CONSTANT HEAD =        5855.5557
               WELLS =           0.0000                 WELLS =           0.0000

            TOTAL IN =     1861635.5000              TOTAL IN =        5855.5557

          OUT:                                     OUT:
          ----                                     ----
             STORAGE =        4509.9990               STORAGE =           0.0000
       CONSTANT HEAD =     1817475.5000         CONSTANT HEAD =        5805.5557
               WELLS =       39650.0000                 WELLS =          50.0000

           TOTAL OUT =     1861635.5000             TOTAL OUT =        5855.5557

            IN - OUT =           0.0000              IN - OUT =           0.0000

 PERCENT DISCREPANCY =           0.00     PERCENT DISCREPANCY =           0.00






         TIME SUMMARY AT END OF TIME STEP    5 IN STRESS PERIOD   11
                    SECONDS     MINUTES      HOURS       DAYS        YEARS
                    -----------------------------------------------------------
   TIME STEP LENGTH 5.18400E+05  8640.0      144.00      6.0000     1.64271E-02
 STRESS PERIOD TIME 2.59200E+06  43200.      720.00      30.000     8.21355E-02
         TOTAL TIME 2.88576E+07 4.80960E+05  8016.0      334.00     0.91444    
1
1
                            STRESS PERIOD NO.   12, LENGTH =   31.00000    
                            -----------------------------------------------

                              NUMBER OF TIME STEPS =     5

                               MULTIPLIER FOR DELT =     1.000

                            INITIAL TIME STEP SIZE =   6.200000    

 WELL NO.  LAYER   ROW   COL   STRESS RATE         
 --------------------------------------------------
      1      1      6      6      -50.00    

      1 WELL 

 CHD NO.   LAYER   ROW   COL    START HEAD        END HEAD         
 ------------------------------------------------------------------
      1      1      1      1       54.33           54.33    
      2      1      2      1       54.33           54.33    
      3      1      3      1       54.33           54.33    
      4      1      4      1       54.33           54.33    
      5      1      5      1       54.33           54.33    
      6      1      6      1       54.33           54.33    
      7      1      7      1       54.33           54.33    
      8      1      8      1       54.33           54.33    
      9      1      9      1       54.33           54.33    
     10      1     10      1       54.33           54.33    
     11      1      1     10       43.46           43.46    
     12      1      2     10       43.46           43.46    
     13      1      3     10       43.46           43.46    
     14      1      4     10       43.46           43.46    
     15      1      5     10       43.46           43.46    
     16      1      6     10       43.46           43.46    
     17      1      7     10       43.46           43.46    
     18      1      8     10       43.46           43.46    
     19      1      9     10       43.46           43.46    
     20      1     10     10       43.46           43.46    


     20 TIME-VARIANT SPECIFIED-HEAD CELLS
 
 SOLVING FOR HEAD 

 NO OUTPUT CONTROL FOR STRESS PERIOD   12   TIME STEP    1
 
 SOLVING FOR HEAD 

 NO OUTPUT CONTROL FOR STRESS PERIOD   12   TIME STEP    2
 
 SOLVING FOR HEAD 

 NO OUTPUT CONTROL FOR STRESS PERIOD   12   TIME STEP    3
 
 SOLVING FOR HEAD 

 NO OUTPUT CONTROL FOR STRESS PERIOD   12   TIME STEP    4
 
 SOLVING FOR HEAD 

 OUTPUT CONTROL FOR STRESS PERIOD   12   TIME STEP    5
    SAVE HEAD FOR ALL LAYERS
    SAVE BUDGET

 HEAD WILL BE SAVED ON UNIT   51 AT END OF TIME STEP    5, STRESS PERIOD   12
1
  VOLUMETRIC BUDGET FOR ENTIRE MODEL AT END OF TIME STEP    5, STRESS PERIOD  12
  ------------------------------------------------------------------------------

     CUMULATIVE VOLUMES      L**3       RATES FOR THIS TIME STEP      L**3/T
     ------------------                 ------------------------

           IN:                                      IN:
           ---                                      ---
             STORAGE =        3614.9993               STORAGE =           0.0000
       CONSTANT HEAD =     2046185.5000         CONSTANT HEAD =        6058.9043
               WELLS =           0.0000                 WELLS =           0.0000

            TOTAL IN =     2049800.5000              TOTAL IN =        6058.9043

          OUT:                                     OUT:
          ----                                     ----
             STORAGE =        5168.8447               STORAGE =       3.0764E-06
       CONSTANT HEAD =     2003431.6250         CONSTANT HEAD =        6008.9043
               WELLS =       41200.0000                 WELLS =          50.0000

           TOTAL OUT =     2049800.5000             TOTAL OUT =        6058.9043

            IN - OUT =           0.0000              IN - OUT =           0.0000

 PERCENT DISCREPANCY =           0.00     PERCENT DISCREPANCY =           0.00






         TIME SUMMARY AT END OF TIME STEP    5 IN STRESS PERIOD   12
                    SECONDS     MINUTES      HOURS       DAYS        YEARS
                    -----------------------------------------------------------
   TIME STEP LENGTH 5.35680E+05  8928.0      148.80      6.2000     1.69747E-02
 STRESS PERIOD TIME 2.67840E+06  44640.      744.00      31.000     8.48734E-02
         TOTAL TIME 3.15360E+07 5.25600E+05  8760.0      365.00     0.99932    
1

 Run end date and time (yyyy/mm/dd hh:mm:ss): 2025/08/08  9:11:32
 Elapsed run time:  0.003 Seconds

